MODEL 1
REMARK VINA RESULT:      -6.4      0.000      0.000
REMARK  2 active torsions:
REMARK  status: ('A' for Active; 'I' for Inactive)
REMARK    1  A    between atoms: C_4  and  N_5 
REMARK       I    between atoms: N_5  and  C_6 
REMARK       I    between atoms: C_6  and  N_8 
REMARK    2  A    between atoms: N_8  and  C_9 
ROOT
HETATM    1  N   UNL     1     -41.493 -47.870  10.240  1.00  0.00    -0.293 N 
HETATM    2  C   UNL     1     -41.108 -48.773  11.189  1.00  0.00     0.322 C 
HETATM    3  O   UNL     1     -39.967 -48.728  11.648  1.00  0.00    -0.247 OA
HETATM    4  N   UNL     1     -42.009 -49.733  11.530  1.00  0.00    -0.337 N 
HETATM    5  H   UNL     1     -40.761 -47.247   9.937  1.00  0.00     0.172 HD
HETATM    6  H   UNL     1     -42.946 -49.611  11.152  1.00  0.00     0.164 HD
ENDROOT
BRANCH   1   7
HETATM    7  C   UNL     1     -42.717 -47.793   9.608  1.00  0.00     0.132 A 
HETATM    8  C   UNL     1     -43.922 -47.390  10.227  1.00  0.00     0.084 A 
HETATM    9  C   UNL     1     -44.848 -47.399   9.214  1.00  0.00     0.076 A 
HETATM   10  C   UNL     1     -46.270 -47.037   9.103  1.00  0.00     0.079 C 
HETATM   11  O   UNL     1     -44.257 -47.831   8.073  1.00  0.00    -0.241 OA
HETATM   12  N   UNL     1     -42.922 -48.070   8.314  1.00  0.00    -0.245 N 
ATOM     13  HN  UNL     1     -42.228 -48.392   7.640  1.00  0.00     0.196 HD
ENDBRANCH   1   7
BRANCH   4  14
HETATM   14  C   UNL     1     -41.778 -50.850  12.417  1.00  0.00     0.101 C 
HETATM   15  C   UNL     1     -40.964 -51.982  11.782  1.00  0.00     0.041 C 
HETATM   16  C   UNL     1     -41.038 -53.192  12.712  1.00  0.00     0.142 C 
HETATM   17  S   UNL     1     -42.423 -52.918  13.805  1.00  0.00     0.146 S 
HETATM   18  O   UNL     1     -43.375 -54.002  13.672  1.00  0.00    -0.228 OA
HETATM   19  O   UNL     1     -41.907 -52.507  15.097  1.00  0.00    -0.228 OA
HETATM   20  C   UNL     1     -43.047 -51.477  12.977  1.00  0.00     0.165 C 
ENDBRANCH   4  14
TORSDOF 2
ENDMDL
MODEL 2
REMARK VINA RESULT:      -6.2      1.795      2.076
REMARK  2 active torsions:
REMARK  status: ('A' for Active; 'I' for Inactive)
REMARK    1  A    between atoms: C_4  and  N_5 
REMARK       I    between atoms: N_5  and  C_6 
REMARK       I    between atoms: C_6  and  N_8 
REMARK    2  A    between atoms: N_8  and  C_9 
ROOT
HETATM    1  N   UNL     1     -42.014 -46.626   9.823  1.00  0.00    -0.293 N 
HETATM    2  C   UNL     1     -41.197 -47.198  10.754  1.00  0.00     0.322 C 
HETATM    3  O   UNL     1     -40.251 -46.559  11.214  1.00  0.00    -0.247 OA
HETATM    4  N   UNL     1     -41.442 -48.497  11.076  1.00  0.00    -0.337 N 
HETATM    5  H   UNL     1     -41.731 -45.702   9.532  1.00  0.00     0.172 HD
HETATM    6  H   UNL     1     -42.304 -48.887  10.701  1.00  0.00     0.164 HD
ENDROOT
BRANCH   1   7
HETATM    7  C   UNL     1     -43.096 -47.203   9.192  1.00  0.00     0.132 A 
HETATM    8  C   UNL     1     -44.388 -47.321   9.752  1.00  0.00     0.084 A 
HETATM    9  C   UNL     1     -45.144 -47.887   8.756  1.00  0.00     0.076 A 
HETATM   10  C   UNL     1     -46.565 -48.238   8.599  1.00  0.00     0.079 C 
HETATM   11  O   UNL     1     -44.351 -48.145   7.686  1.00  0.00    -0.241 OA
HETATM   12  N   UNL     1     -43.072 -47.710   7.953  1.00  0.00    -0.245 N 
ATOM     13  HN  UNL     1     -42.266 -47.763   7.330  1.00  0.00     0.196 HD
ENDBRANCH   1   7
BRANCH   4  14
HETATM   14  C   UNL     1     -40.642 -49.332  11.941  1.00  0.00     0.101 C 
HETATM   15  C   UNL     1     -39.233 -49.604  11.404  1.00  0.00     0.041 C 
HETATM   16  C   UNL     1     -38.610 -50.708  12.257  1.00  0.00     0.142 C 
HETATM   17  S   UNL     1     -39.951 -51.515  13.114  1.00  0.00     0.146 S 
HETATM   18  O   UNL     1     -39.970 -52.925  12.779  1.00  0.00    -0.228 OA
HETATM   19  O   UNL     1     -39.952 -51.056  14.491  1.00  0.00    -0.228 OA
HETATM   20  C   UNL     1     -41.264 -50.685  12.256  1.00  0.00     0.165 C 
ENDBRANCH   4  14
TORSDOF 2
ENDMDL
MODEL 3
REMARK VINA RESULT:      -6.2      4.609      6.576
REMARK  2 active torsions:
REMARK  status: ('A' for Active; 'I' for Inactive)
REMARK    1  A    between atoms: C_4  and  N_5 
REMARK       I    between atoms: N_5  and  C_6 
REMARK       I    between atoms: C_6  and  N_8 
REMARK    2  A    between atoms: N_8  and  C_9 
ROOT
HETATM    1  N   UNL     1     -41.513 -47.807  10.145  1.00  0.00    -0.293 N 
HETATM    2  C   UNL     1     -40.905 -46.829  10.877  1.00  0.00     0.322 C 
HETATM    3  O   UNL     1     -39.800 -47.036  11.377  1.00  0.00    -0.247 OA
HETATM    4  N   UNL     1     -41.604 -45.678  11.072  1.00  0.00    -0.337 N 
HETATM    5  H   UNL     1     -41.010 -48.680  10.119  1.00  0.00     0.172 HD
HETATM    6  H   UNL     1     -42.463 -45.589  10.533  1.00  0.00     0.164 HD
ENDROOT
BRANCH   1   7
HETATM    7  C   UNL     1     -42.751 -47.750   9.540  1.00  0.00     0.132 A 
HETATM    8  C   UNL     1     -43.968 -47.498  10.213  1.00  0.00     0.084 A 
HETATM    9  C   UNL     1     -44.912 -47.466   9.217  1.00  0.00     0.076 A 
HETATM   10  C   UNL     1     -46.357 -47.194   9.161  1.00  0.00     0.079 C 
HETATM   11  O   UNL     1     -44.315 -47.735   8.029  1.00  0.00    -0.241 OA
HETATM   12  N   UNL     1     -42.963 -47.904   8.227  1.00  0.00    -0.245 N 
ATOM     13  HN  UNL     1     -42.262 -48.107   7.515  1.00  0.00     0.196 HD
ENDBRANCH   1   7
BRANCH   4  14
HETATM   14  C   UNL     1     -41.208 -44.564  11.902  1.00  0.00     0.101 C 
HETATM   15  C   UNL     1     -42.366 -43.941  12.688  1.00  0.00     0.041 C 
HETATM   16  C   UNL     1     -41.872 -42.625  13.288  1.00  0.00     0.142 C 
HETATM   17  S   UNL     1     -40.397 -42.172  12.391  1.00  0.00     0.146 S 
HETATM   18  O   UNL     1     -40.575 -40.870  11.781  1.00  0.00    -0.228 OA
HETATM   19  O   UNL     1     -39.248 -42.476  13.224  1.00  0.00    -0.228 OA
HETATM   20  C   UNL     1     -40.526 -43.431  11.148  1.00  0.00     0.165 C 
ENDBRANCH   4  14
TORSDOF 2
ENDMDL
MODEL 4
REMARK VINA RESULT:      -6.0      4.208      7.254
REMARK  2 active torsions:
REMARK  status: ('A' for Active; 'I' for Inactive)
REMARK    1  A    between atoms: C_4  and  N_5 
REMARK       I    between atoms: N_5  and  C_6 
REMARK       I    between atoms: C_6  and  N_8 
REMARK    2  A    between atoms: N_8  and  C_9 
ROOT
HETATM    1  N   UNL     1     -40.820 -49.416  10.611  1.00  0.00    -0.293 N 
HETATM    2  C   UNL     1     -41.424 -48.205  10.433  1.00  0.00     0.322 C 
HETATM    3  O   UNL     1     -42.463 -48.130   9.778  1.00  0.00    -0.247 OA
HETATM    4  N   UNL     1     -40.790 -47.116  10.946  1.00  0.00    -0.337 N 
HETATM    5  H   UNL     1     -41.263 -50.178  10.122  1.00  0.00     0.172 HD
HETATM    6  H   UNL     1     -39.991 -47.315  11.545  1.00  0.00     0.164 HD
ENDROOT
BRANCH   1   7
HETATM    7  C   UNL     1     -39.649 -49.673  11.292  1.00  0.00     0.132 A 
HETATM    8  C   UNL     1     -39.543 -49.810  12.695  1.00  0.00     0.084 A 
HETATM    9  C   UNL     1     -38.225 -50.124  12.912  1.00  0.00     0.076 A 
HETATM   10  C   UNL     1     -37.419 -50.467  14.095  1.00  0.00     0.079 C 
HETATM   11  O   UNL     1     -37.566 -50.123  11.727  1.00  0.00    -0.241 OA
HETATM   12  N   UNL     1     -38.455 -49.850  10.712  1.00  0.00    -0.245 N 
ATOM     13  HN  UNL     1     -38.246 -49.794   9.715  1.00  0.00     0.196 HD
ENDBRANCH   1   7
BRANCH   4  14
HETATM   14  C   UNL     1     -41.183 -45.736  10.779  1.00  0.00     0.101 C 
HETATM   15  C   UNL     1     -40.041 -44.740  11.002  1.00  0.00     0.041 C 
HETATM   16  C   UNL     1     -40.647 -43.339  11.074  1.00  0.00     0.142 C 
HETATM   17  S   UNL     1     -42.391 -43.549  11.390  1.00  0.00     0.146 S 
HETATM   18  O   UNL     1     -42.751 -42.870  12.619  1.00  0.00    -0.228 OA
HETATM   19  O   UNL     1     -43.108 -43.318  10.150  1.00  0.00    -0.228 OA
HETATM   20  C   UNL     1     -42.332 -45.299  11.676  1.00  0.00     0.165 C 
ENDBRANCH   4  14
TORSDOF 2
ENDMDL
MODEL 5
REMARK VINA RESULT:      -5.9      2.733      3.765
REMARK  2 active torsions:
REMARK  status: ('A' for Active; 'I' for Inactive)
REMARK    1  A    between atoms: C_4  and  N_5 
REMARK       I    between atoms: N_5  and  C_6 
REMARK       I    between atoms: C_6  and  N_8 
REMARK    2  A    between atoms: N_8  and  C_9 
ROOT
HETATM    1  N   UNL     1     -39.837 -51.280  12.065  1.00  0.00    -0.293 N 
HETATM    2  C   UNL     1     -40.465 -52.343  12.647  1.00  0.00     0.322 C 
HETATM    3  O   UNL     1     -39.816 -53.337  12.969  1.00  0.00    -0.247 OA
HETATM    4  N   UNL     1     -41.817 -52.264  12.779  1.00  0.00    -0.337 N 
HETATM    5  H   UNL     1     -38.855 -51.425  11.885  1.00  0.00     0.172 HD
HETATM    6  H   UNL     1     -42.227 -51.358  12.563  1.00  0.00     0.164 HD
ENDROOT
BRANCH   1   7
HETATM    7  C   UNL     1     -40.412 -50.107  11.625  1.00  0.00     0.132 A 
HETATM    8  C   UNL     1     -40.817 -49.043  12.463  1.00  0.00     0.084 A 
HETATM    9  C   UNL     1     -41.262 -48.074  11.598  1.00  0.00     0.076 A 
HETATM   10  C   UNL     1     -41.761 -46.697  11.746  1.00  0.00     0.079 C 
HETATM   11  O   UNL     1     -41.184 -48.542  10.327  1.00  0.00    -0.241 OA
HETATM   12  N   UNL     1     -40.645 -49.808  10.341  1.00  0.00    -0.245 N 
ATOM     13  HN  UNL     1     -40.459 -50.402   9.533  1.00  0.00     0.196 HD
ENDBRANCH   1   7
BRANCH   4  14
HETATM   14  C   UNL     1     -42.694 -53.308  13.256  1.00  0.00     0.101 C 
HETATM   15  C   UNL     1     -44.005 -53.415  12.470  1.00  0.00     0.041 C 
HETATM   16  C   UNL     1     -44.940 -54.346  13.242  1.00  0.00     0.142 C 
HETATM   17  S   UNL     1     -44.303 -54.450  14.906  1.00  0.00     0.146 S 
HETATM   18  O   UNL     1     -45.313 -54.008  15.847  1.00  0.00    -0.228 OA
HETATM   19  O   UNL     1     -43.627 -55.725  15.054  1.00  0.00    -0.228 OA
HETATM   20  C   UNL     1     -43.069 -53.188  14.727  1.00  0.00     0.165 C 
ENDBRANCH   4  14
TORSDOF 2
ENDMDL
MODEL 6
REMARK VINA RESULT:      -5.9      3.065      5.912
REMARK  2 active torsions:
REMARK  status: ('A' for Active; 'I' for Inactive)
REMARK    1  A    between atoms: C_4  and  N_5 
REMARK       I    between atoms: N_5  and  C_6 
REMARK       I    between atoms: C_6  and  N_8 
REMARK    2  A    between atoms: N_8  and  C_9 
ROOT
HETATM    1  N   UNL     1     -41.871 -52.170  12.369  1.00  0.00    -0.293 N 
HETATM    2  C   UNL     1     -41.361 -50.948  12.039  1.00  0.00     0.322 C 
HETATM    3  O   UNL     1     -40.145 -50.805  11.914  1.00  0.00    -0.247 OA
HETATM    4  N   UNL     1     -42.245 -49.919  11.931  1.00  0.00    -0.337 N 
HETATM    5  H   UNL     1     -41.174 -52.877  12.547  1.00  0.00     0.172 HD
HETATM    6  H   UNL     1     -43.228 -50.179  11.965  1.00  0.00     0.164 HD
ENDROOT
BRANCH   1   7
HETATM    7  C   UNL     1     -43.196 -52.497  12.569  1.00  0.00     0.132 A 
HETATM    8  C   UNL     1     -44.004 -51.990  13.611  1.00  0.00     0.084 A 
HETATM    9  C   UNL     1     -45.245 -52.528  13.377  1.00  0.00     0.076 A 
HETATM   10  C   UNL     1     -46.571 -52.395  14.002  1.00  0.00     0.079 C 
HETATM   11  O   UNL     1     -45.179 -53.348  12.299  1.00  0.00    -0.241 OA
HETATM   12  N   UNL     1     -43.901 -53.324  11.787  1.00  0.00    -0.245 N 
ATOM     13  HN  UNL     1     -43.560 -53.834  10.972  1.00  0.00     0.196 HD
ENDBRANCH   1   7
BRANCH   4  14
HETATM   14  C   UNL     1     -41.920 -48.529  11.708  1.00  0.00     0.101 C 
HETATM   15  C   UNL     1     -42.779 -47.558  12.525  1.00  0.00     0.041 C 
HETATM   16  C   UNL     1     -42.531 -46.149  11.990  1.00  0.00     0.142 C 
HETATM   17  S   UNL     1     -41.794 -46.333  10.374  1.00  0.00     0.146 S 
HETATM   18  O   UNL     1     -42.618 -45.672   9.382  1.00  0.00    -0.228 OA
HETATM   19  O   UNL     1     -40.373 -46.065  10.490  1.00  0.00    -0.228 OA
HETATM   20  C   UNL     1     -42.017 -48.089  10.254  1.00  0.00     0.165 C 
ENDBRANCH   4  14
TORSDOF 2
ENDMDL
MODEL 7
REMARK VINA RESULT:      -5.8      3.792      5.524
REMARK  2 active torsions:
REMARK  status: ('A' for Active; 'I' for Inactive)
REMARK    1  A    between atoms: C_4  and  N_5 
REMARK       I    between atoms: N_5  and  C_6 
REMARK       I    between atoms: C_6  and  N_8 
REMARK    2  A    between atoms: N_8  and  C_9 
ROOT
HETATM    1  N   UNL     1     -44.048 -50.781  12.913  1.00  0.00    -0.293 N 
HETATM    2  C   UNL     1     -42.838 -50.152  12.969  1.00  0.00     0.322 C 
HETATM    3  O   UNL     1     -42.785 -48.923  12.946  1.00  0.00    -0.247 OA
HETATM    4  N   UNL     1     -41.731 -50.943  12.981  1.00  0.00    -0.337 N 
HETATM    5  H   UNL     1     -44.834 -50.160  12.794  1.00  0.00     0.172 HD
HETATM    6  H   UNL     1     -41.905 -51.940  13.092  1.00  0.00     0.164 HD
ENDROOT
BRANCH   1   7
HETATM    7  C   UNL     1     -44.285 -52.140  12.906  1.00  0.00     0.132 A 
HETATM    8  C   UNL     1     -45.001 -52.840  13.902  1.00  0.00     0.084 A 
HETATM    9  C   UNL     1     -45.044 -54.135  13.450  1.00  0.00     0.076 A 
HETATM   10  C   UNL     1     -45.667 -55.382  13.923  1.00  0.00     0.079 C 
HETATM   11  O   UNL     1     -44.354 -54.223  12.286  1.00  0.00    -0.241 OA
HETATM   12  N   UNL     1     -43.886 -52.976  11.939  1.00  0.00    -0.245 N 
ATOM     13  HN  UNL     1     -43.343 -52.736  11.109  1.00  0.00     0.196 HD
ENDBRANCH   1   7
BRANCH   4  14
HETATM   14  C   UNL     1     -40.358 -50.499  12.922  1.00  0.00     0.101 C 
HETATM   15  C   UNL     1     -39.954 -49.929  11.559  1.00  0.00     0.041 C 
HETATM   16  C   UNL     1     -38.434 -49.766  11.550  1.00  0.00     0.142 C 
HETATM   17  S   UNL     1     -37.801 -50.775  12.879  1.00  0.00     0.146 S 
HETATM   18  O   UNL     1     -36.871 -51.753  12.352  1.00  0.00    -0.228 OA
HETATM   19  O   UNL     1     -37.448 -49.902  13.983  1.00  0.00    -0.228 OA
HETATM   20  C   UNL     1     -39.337 -51.571  13.274  1.00  0.00     0.165 C 
ENDBRANCH   4  14
TORSDOF 2
ENDMDL
MODEL 8
REMARK VINA RESULT:      -5.7      2.431      3.499
REMARK  2 active torsions:
REMARK  status: ('A' for Active; 'I' for Inactive)
REMARK    1  A    between atoms: C_4  and  N_5 
REMARK       I    between atoms: N_5  and  C_6 
REMARK       I    between atoms: C_6  and  N_8 
REMARK    2  A    between atoms: N_8  and  C_9 
ROOT
HETATM    1  N   UNL     1     -42.834 -48.787  13.054  1.00  0.00    -0.293 N 
HETATM    2  C   UNL     1     -43.527 -49.825  13.605  1.00  0.00     0.322 C 
HETATM    3  O   UNL     1     -43.454 -50.037  14.815  1.00  0.00    -0.247 OA
HETATM    4  N   UNL     1     -44.222 -50.626  12.752  1.00  0.00    -0.337 N 
HETATM    5  H   UNL     1     -42.245 -48.288  13.704  1.00  0.00     0.172 HD
HETATM    6  H   UNL     1     -44.282 -50.296  11.791  1.00  0.00     0.164 HD
ENDROOT
BRANCH   1   7
HETATM    7  C   UNL     1     -42.786 -48.426  11.724  1.00  0.00     0.132 A 
HETATM    8  C   UNL     1     -43.631 -47.471  11.116  1.00  0.00     0.084 A 
HETATM    9  C   UNL     1     -43.182 -47.389   9.821  1.00  0.00     0.076 A 
HETATM   10  C   UNL     1     -43.532 -46.571   8.649  1.00  0.00     0.079 C 
HETATM   11  O   UNL     1     -42.170 -48.274   9.643  1.00  0.00    -0.241 OA
HETATM   12  N   UNL     1     -41.915 -48.918  10.833  1.00  0.00    -0.245 N 
ATOM     13  HN  UNL     1     -41.203 -49.627  11.004  1.00  0.00     0.196 HD
ENDBRANCH   1   7
BRANCH   4  14
HETATM   14  C   UNL     1     -44.926 -51.839  13.096  1.00  0.00     0.101 C 
HETATM   15  C   UNL     1     -46.226 -51.598  13.870  1.00  0.00     0.041 C 
HETATM   16  C   UNL     1     -46.709 -52.945  14.407  1.00  0.00     0.142 C 
HETATM   17  S   UNL     1     -45.314 -54.055  14.344  1.00  0.00     0.146 S 
HETATM   18  O   UNL     1     -45.030 -54.562  15.672  1.00  0.00    -0.228 OA
HETATM   19  O   UNL     1     -45.488 -54.941  13.208  1.00  0.00    -0.228 OA
HETATM   20  C   UNL     1     -44.105 -52.831  13.908  1.00  0.00     0.165 C 
ENDBRANCH   4  14
TORSDOF 2
ENDMDL
MODEL 9
REMARK VINA RESULT:      -5.7      3.595      6.299
REMARK  2 active torsions:
REMARK  status: ('A' for Active; 'I' for Inactive)
REMARK    1  A    between atoms: C_4  and  N_5 
REMARK       I    between atoms: N_5  and  C_6 
REMARK       I    between atoms: C_6  and  N_8 
REMARK    2  A    between atoms: N_8  and  C_9 
ROOT
HETATM    1  N   UNL     1     -39.317 -50.977  11.915  1.00  0.00    -0.293 N 
HETATM    2  C   UNL     1     -38.994 -49.692  11.588  1.00  0.00     0.322 C 
HETATM    3  O   UNL     1     -37.816 -49.380  11.419  1.00  0.00    -0.247 OA
HETATM    4  N   UNL     1     -40.015 -48.794  11.533  1.00  0.00    -0.337 N 
HETATM    5  H   UNL     1     -38.523 -51.583  12.053  1.00  0.00     0.172 HD
HETATM    6  H   UNL     1     -40.951 -49.187  11.600  1.00  0.00     0.164 HD
ENDROOT
BRANCH   1   7
HETATM    7  C   UNL     1     -40.575 -51.486  12.160  1.00  0.00     0.132 A 
HETATM    8  C   UNL     1     -41.338 -51.229  13.322  1.00  0.00     0.084 A 
HETATM    9  C   UNL     1     -42.529 -51.875  13.102  1.00  0.00     0.076 A 
HETATM   10  C   UNL     1     -43.800 -51.990  13.834  1.00  0.00     0.079 C 
HETATM   11  O   UNL     1     -42.469 -52.526  11.913  1.00  0.00    -0.241 OA
HETATM   12  N   UNL     1     -41.253 -52.277  11.318  1.00  0.00    -0.245 N 
ATOM     13  HN  UNL     1     -40.932 -52.625  10.416  1.00  0.00     0.196 HD
ENDBRANCH   1   7
BRANCH   4  14
HETATM   14  C   UNL     1     -39.894 -47.370  11.323  1.00  0.00     0.101 C 
HETATM   15  C   UNL     1     -39.728 -46.568  12.618  1.00  0.00     0.041 C 
HETATM   16  C   UNL     1     -39.896 -45.088  12.279  1.00  0.00     0.142 C 
HETATM   17  S   UNL     1     -40.708 -45.012  10.691  1.00  0.00     0.146 S 
HETATM   18  O   UNL     1     -41.951 -44.276  10.810  1.00  0.00    -0.228 OA
HETATM   19  O   UNL     1     -39.714 -44.678   9.688  1.00  0.00    -0.228 OA
HETATM   20  C   UNL     1     -41.057 -46.748  10.563  1.00  0.00     0.165 C 
ENDBRANCH   4  14
TORSDOF 2
ENDMDL
