MODEL 1
REMARK VINA RESULT:      -6.5      0.000      0.000
REMARK  7 active torsions:
REMARK  status: ('A' for Active; 'I' for Inactive)
REMARK    1  A    between atoms: O_2  and  C_3 
REMARK    2  A    between atoms: C_6  and  O_7 
REMARK    3  A    between atoms: O_7  and  C_8 
REMARK    4  A    between atoms: C_8  and  C_9 
REMARK    5  A    between atoms: C_9  and  O_10 
REMARK    6  A    between atoms: C_9  and  C_11 
REMARK    7  A    between atoms: C_11  and  N_12 
ROOT
HETATM    1  C   UNL     1     -40.067 -49.546  11.676  1.00  0.00     0.160 C 
ENDROOT
BRANCH   1   2
HETATM    2  C   UNL     1     -39.780 -50.700  12.651  1.00  0.00     0.209 C 
BRANCH   2   3
HETATM    3  O   UNL     1     -40.103 -51.926  11.981  1.00  0.00    -0.349 OA
BRANCH   3   4
HETATM    4  C   UNL     1     -41.155 -52.641  12.477  1.00  0.00     0.069 A 
HETATM    5  C   UNL     1     -40.821 -53.611  13.423  1.00  0.00     0.039 A 
HETATM    6  C   UNL     1     -41.815 -54.386  14.024  1.00  0.00     0.039 A 
HETATM    7  C   UNL     1     -43.158 -54.171  13.714  1.00  0.00     0.068 A 
HETATM    8  C   UNL     1     -43.495 -53.203  12.769  1.00  0.00     0.039 A 
HETATM    9  C   UNL     1     -42.496 -52.438  12.152  1.00  0.00     0.039 A 
BRANCH   7  10
HETATM   10  O   UNL     1     -44.046 -54.985  14.363  1.00  0.00    -0.356 OA
HETATM   11  C   UNL     1     -45.357 -55.029  13.807  1.00  0.00     0.210 C 
ENDBRANCH   7  10
ENDBRANCH   3   4
ENDBRANCH   2   3
ENDBRANCH   1   2
BRANCH   1  12
HETATM   12  O   UNL     1     -40.366 -50.112  10.390  1.00  0.00    -0.392 OA
HETATM   13  H   UNL     1     -41.335 -50.072  10.275  1.00  0.00     0.210 HD
ENDBRANCH   1  12
BRANCH   1  14
HETATM   14  C   UNL     1     -41.240 -48.686  12.157  1.00  0.00     0.164 C 
BRANCH  14  15
HETATM   15  N   UNL     1     -41.547 -47.587  11.258  1.00  0.00    -0.339 N 
HETATM   16  C   UNL     1     -40.649 -46.636  10.860  1.00  0.00     0.184 A 
HETATM   17  N   UNL     1     -41.163 -45.821   9.967  1.00  0.00    -0.350 N 
HETATM   18  C   UNL     1     -42.453 -46.254   9.792  1.00  0.00     0.060 A 
ATOM     19  HN  UNL     1     -40.703 -45.037   9.505  1.00  0.00     0.166 HD
HETATM   20  C   UNL     1     -43.452 -45.746   8.948  1.00  0.00     0.032 A 
HETATM   21  C   UNL     1     -42.729 -47.361  10.596  1.00  0.00     0.062 A 
HETATM   22  C   UNL     1     -44.706 -46.367   8.940  1.00  0.00     0.002 A 
HETATM   23  C   UNL     1     -44.962 -47.470   9.757  1.00  0.00     0.002 A 
HETATM   24  C   UNL     1     -43.977 -47.993  10.604  1.00  0.00     0.032 A 
ENDBRANCH  14  15
ENDBRANCH   1  14
TORSDOF 7
ENDMDL
MODEL 2
REMARK VINA RESULT:      -6.2      3.100      7.161
REMARK  7 active torsions:
REMARK  status: ('A' for Active; 'I' for Inactive)
REMARK    1  A    between atoms: O_2  and  C_3 
REMARK    2  A    between atoms: C_6  and  O_7 
REMARK    3  A    between atoms: O_7  and  C_8 
REMARK    4  A    between atoms: C_8  and  C_9 
REMARK    5  A    between atoms: C_9  and  O_10 
REMARK    6  A    between atoms: C_9  and  C_11 
REMARK    7  A    between atoms: C_11  and  N_12 
ROOT
HETATM    1  C   UNL     1     -41.629 -52.429  11.947  1.00  0.00     0.160 C 
ENDROOT
BRANCH   1   2
HETATM    2  C   UNL     1     -41.028 -51.013  11.922  1.00  0.00     0.209 C 
BRANCH   2   3
HETATM    3  O   UNL     1     -42.084 -50.088  12.212  1.00  0.00    -0.349 OA
BRANCH   3   4
HETATM    4  C   UNL     1     -41.960 -48.830  11.695  1.00  0.00     0.069 A 
HETATM    5  C   UNL     1     -40.659 -48.329  11.659  1.00  0.00     0.039 A 
HETATM    6  C   UNL     1     -40.401 -47.064  11.125  1.00  0.00     0.039 A 
HETATM    7  C   UNL     1     -41.438 -46.304  10.586  1.00  0.00     0.068 A 
HETATM    8  C   UNL     1     -42.740 -46.802  10.620  1.00  0.00     0.039 A 
HETATM    9  C   UNL     1     -43.001 -48.063  11.173  1.00  0.00     0.039 A 
BRANCH   7  10
HETATM   10  O   UNL     1     -41.072 -45.083  10.089  1.00  0.00    -0.356 OA
HETATM   11  C   UNL     1     -39.712 -44.715  10.306  1.00  0.00     0.210 C 
ENDBRANCH   7  10
ENDBRANCH   3   4
ENDBRANCH   2   3
ENDBRANCH   1   2
BRANCH   1  12
HETATM   12  O   UNL     1     -40.612 -53.353  11.530  1.00  0.00    -0.392 OA
HETATM   13  H   UNL     1     -40.881 -54.239  11.841  1.00  0.00     0.210 HD
ENDBRANCH   1  12
BRANCH   1  14
HETATM   14  C   UNL     1     -42.132 -52.799  13.347  1.00  0.00     0.164 C 
BRANCH  14  15
HETATM   15  N   UNL     1     -43.578 -52.918  13.419  1.00  0.00    -0.339 N 
HETATM   16  C   UNL     1     -44.319 -53.821  12.708  1.00  0.00     0.184 A 
HETATM   17  N   UNL     1     -45.589 -53.780  13.039  1.00  0.00    -0.350 N 
HETATM   18  C   UNL     1     -45.677 -52.798  13.993  1.00  0.00     0.060 A 
ATOM     19  HN  UNL     1     -46.346 -54.354  12.668  1.00  0.00     0.166 HD
HETATM   20  C   UNL     1     -46.802 -52.339  14.692  1.00  0.00     0.032 A 
HETATM   21  C   UNL     1     -44.428 -52.230  14.250  1.00  0.00     0.062 A 
HETATM   22  C   UNL     1     -46.639 -51.315  15.632  1.00  0.00     0.002 A 
HETATM   23  C   UNL     1     -45.381 -50.757  15.870  1.00  0.00     0.002 A 
HETATM   24  C   UNL     1     -44.245 -51.203  15.183  1.00  0.00     0.032 A 
ENDBRANCH  14  15
ENDBRANCH   1  14
TORSDOF 7
ENDMDL
MODEL 3
REMARK VINA RESULT:      -6.1      2.987      7.434
REMARK  7 active torsions:
REMARK  status: ('A' for Active; 'I' for Inactive)
REMARK    1  A    between atoms: O_2  and  C_3 
REMARK    2  A    between atoms: C_6  and  O_7 
REMARK    3  A    between atoms: O_7  and  C_8 
REMARK    4  A    between atoms: C_8  and  C_9 
REMARK    5  A    between atoms: C_9  and  O_10 
REMARK    6  A    between atoms: C_9  and  C_11 
REMARK    7  A    between atoms: C_11  and  N_12 
ROOT
HETATM    1  C   UNL     1     -41.402 -52.326  12.061  1.00  0.00     0.160 C 
ENDROOT
BRANCH   1   2
HETATM    2  C   UNL     1     -40.751 -50.972  11.736  1.00  0.00     0.209 C 
BRANCH   2   3
HETATM    3  O   UNL     1     -41.773 -49.969  11.809  1.00  0.00    -0.349 OA
BRANCH   3   4
HETATM    4  C   UNL     1     -41.431 -48.709  11.411  1.00  0.00     0.069 A 
HETATM    5  C   UNL     1     -42.406 -48.033  10.676  1.00  0.00     0.039 A 
HETATM    6  C   UNL     1     -42.183 -46.725  10.239  1.00  0.00     0.039 A 
HETATM    7  C   UNL     1     -40.998 -46.067  10.565  1.00  0.00     0.068 A 
HETATM    8  C   UNL     1     -40.022 -46.739  11.298  1.00  0.00     0.039 A 
HETATM    9  C   UNL     1     -40.237 -48.058  11.721  1.00  0.00     0.039 A 
BRANCH   7  10
HETATM   10  O   UNL     1     -40.887 -44.790  10.086  1.00  0.00    -0.356 OA
HETATM   11  C   UNL     1     -40.295 -43.850  10.979  1.00  0.00     0.210 C 
ENDBRANCH   7  10
ENDBRANCH   3   4
ENDBRANCH   2   3
ENDBRANCH   1   2
BRANCH   1  12
HETATM   12  O   UNL     1     -40.551 -53.365  11.550  1.00  0.00    -0.392 OA
HETATM   13  H   UNL     1     -40.905 -54.214  11.876  1.00  0.00     0.210 HD
ENDBRANCH   1  12
BRANCH   1  14
HETATM   14  C   UNL     1     -41.600 -52.505  13.571  1.00  0.00     0.164 C 
BRANCH  14  15
HETATM   15  N   UNL     1     -42.812 -53.232  13.903  1.00  0.00    -0.339 N 
HETATM   16  C   UNL     1     -42.848 -54.538  14.309  1.00  0.00     0.184 A 
HETATM   17  N   UNL     1     -44.061 -54.913  14.642  1.00  0.00    -0.350 N 
HETATM   18  C   UNL     1     -44.847 -53.810  14.428  1.00  0.00     0.060 A 
ATOM     19  HN  UNL     1     -44.356 -55.828  14.986  1.00  0.00     0.166 HD
HETATM   20  C   UNL     1     -46.227 -53.652  14.622  1.00  0.00     0.032 A 
HETATM   21  C   UNL     1     -44.091 -52.736  13.955  1.00  0.00     0.062 A 
HETATM   22  C   UNL     1     -46.810 -52.413  14.333  1.00  0.00     0.002 A 
HETATM   23  C   UNL     1     -46.036 -51.353  13.856  1.00  0.00     0.002 A 
HETATM   24  C   UNL     1     -44.657 -51.490  13.656  1.00  0.00     0.032 A 
ENDBRANCH  14  15
ENDBRANCH   1  14
TORSDOF 7
ENDMDL
MODEL 4
REMARK VINA RESULT:      -6.1      3.287      4.689
REMARK  7 active torsions:
REMARK  status: ('A' for Active; 'I' for Inactive)
REMARK    1  A    between atoms: O_2  and  C_3 
REMARK    2  A    between atoms: C_6  and  O_7 
REMARK    3  A    between atoms: O_7  and  C_8 
REMARK    4  A    between atoms: C_8  and  C_9 
REMARK    5  A    between atoms: C_9  and  O_10 
REMARK    6  A    between atoms: C_9  and  C_11 
REMARK    7  A    between atoms: C_11  and  N_12 
ROOT
HETATM    1  C   UNL     1     -40.999 -51.005  12.034  1.00  0.00     0.160 C 
ENDROOT
BRANCH   1   2
HETATM    2  C   UNL     1     -41.326 -52.476  11.729  1.00  0.00     0.209 C 
BRANCH   2   3
HETATM    3  O   UNL     1     -40.562 -53.287  12.631  1.00  0.00    -0.349 OA
BRANCH   3   4
HETATM    4  C   UNL     1     -41.255 -53.942  13.608  1.00  0.00     0.069 A 
HETATM    5  C   UNL     1     -40.499 -54.320  14.719  1.00  0.00     0.039 A 
HETATM    6  C   UNL     1     -41.103 -54.971  15.798  1.00  0.00     0.039 A 
HETATM    7  C   UNL     1     -42.476 -55.214  15.793  1.00  0.00     0.068 A 
HETATM    8  C   UNL     1     -43.233 -54.838  14.685  1.00  0.00     0.039 A 
HETATM    9  C   UNL     1     -42.625 -54.202  13.594  1.00  0.00     0.039 A 
BRANCH   7  10
HETATM   10  O   UNL     1     -42.961 -55.854  16.901  1.00  0.00    -0.356 OA
HETATM   11  C   UNL     1     -42.317 -55.527  18.129  1.00  0.00     0.210 C 
ENDBRANCH   7  10
ENDBRANCH   3   4
ENDBRANCH   2   3
ENDBRANCH   1   2
BRANCH   1  12
HETATM   12  O   UNL     1     -40.377 -50.435  10.871  1.00  0.00    -0.392 OA
HETATM   13  H   UNL     1     -40.034 -51.175  10.335  1.00  0.00     0.210 HD
ENDBRANCH   1  12
BRANCH   1  14
HETATM   14  C   UNL     1     -42.261 -50.214  12.395  1.00  0.00     0.164 C 
BRANCH  14  15
HETATM   15  N   UNL     1     -42.835 -50.609  13.669  1.00  0.00    -0.339 N 
HETATM   16  C   UNL     1     -42.159 -50.610  14.858  1.00  0.00     0.184 A 
HETATM   17  N   UNL     1     -42.944 -50.914  15.867  1.00  0.00    -0.350 N 
HETATM   18  C   UNL     1     -44.176 -51.133  15.305  1.00  0.00     0.060 A 
ATOM     19  HN  UNL     1     -42.692 -50.973  16.853  1.00  0.00     0.166 HD
HETATM   20  C   UNL     1     -45.383 -51.486  15.925  1.00  0.00     0.032 A 
HETATM   21  C   UNL     1     -44.140 -50.956  13.921  1.00  0.00     0.062 A 
HETATM   22  C   UNL     1     -46.524 -51.653  15.132  1.00  0.00     0.002 A 
HETATM   23  C   UNL     1     -46.464 -51.477  13.748  1.00  0.00     0.002 A 
HETATM   24  C   UNL     1     -45.268 -51.123  13.110  1.00  0.00     0.032 A 
ENDBRANCH  14  15
ENDBRANCH   1  14
TORSDOF 7
ENDMDL
MODEL 5
REMARK VINA RESULT:      -6.0      1.284      2.757
REMARK  7 active torsions:
REMARK  status: ('A' for Active; 'I' for Inactive)
REMARK    1  A    between atoms: O_2  and  C_3 
REMARK    2  A    between atoms: C_6  and  O_7 
REMARK    3  A    between atoms: O_7  and  C_8 
REMARK    4  A    between atoms: C_8  and  C_9 
REMARK    5  A    between atoms: C_9  and  O_10 
REMARK    6  A    between atoms: C_9  and  C_11 
REMARK    7  A    between atoms: C_11  and  N_12 
ROOT
HETATM    1  C   UNL     1     -40.270 -49.831  11.640  1.00  0.00     0.160 C 
ENDROOT
BRANCH   1   2
HETATM    2  C   UNL     1     -40.277 -51.097  12.512  1.00  0.00     0.209 C 
BRANCH   2   3
HETATM    3  O   UNL     1     -41.069 -52.085  11.839  1.00  0.00    -0.349 OA
BRANCH   3   4
HETATM    4  C   UNL     1     -41.865 -52.874  12.619  1.00  0.00     0.069 A 
HETATM    5  C   UNL     1     -43.228 -52.816  12.325  1.00  0.00     0.039 A 
HETATM    6  C   UNL     1     -44.140 -53.600  13.035  1.00  0.00     0.039 A 
HETATM    7  C   UNL     1     -43.693 -54.479  14.020  1.00  0.00     0.068 A 
HETATM    8  C   UNL     1     -42.332 -54.540  14.317  1.00  0.00     0.039 A 
HETATM    9  C   UNL     1     -41.418 -53.739  13.617  1.00  0.00     0.039 A 
BRANCH   7  10
HETATM   10  O   UNL     1     -44.671 -55.200  14.650  1.00  0.00    -0.356 OA
HETATM   11  C   UNL     1     -46.000 -54.956  14.196  1.00  0.00     0.210 C 
ENDBRANCH   7  10
ENDBRANCH   3   4
ENDBRANCH   2   3
ENDBRANCH   1   2
BRANCH   1  12
HETATM   12  O   UNL     1     -40.231 -50.237  10.263  1.00  0.00    -0.392 OA
HETATM   13  H   UNL     1     -39.359 -50.648  10.108  1.00  0.00     0.210 HD
ENDBRANCH   1  12
BRANCH   1  14
HETATM   14  C   UNL     1     -41.510 -48.967  11.897  1.00  0.00     0.164 C 
BRANCH  14  15
HETATM   15  N   UNL     1     -41.443 -47.668  11.252  1.00  0.00    -0.339 N 
HETATM   16  C   UNL     1     -42.149 -47.318  10.134  1.00  0.00     0.184 A 
HETATM   17  N   UNL     1     -41.977 -46.054   9.823  1.00  0.00    -0.350 N 
HETATM   18  C   UNL     1     -41.111 -45.569  10.769  1.00  0.00     0.060 A 
ATOM     19  HN  UNL     1     -42.397 -45.543   9.046  1.00  0.00     0.166 HD
HETATM   20  C   UNL     1     -40.590 -44.275  10.915  1.00  0.00     0.032 A 
HETATM   21  C   UNL     1     -40.749 -46.562  11.680  1.00  0.00     0.062 A 
HETATM   22  C   UNL     1     -39.715 -44.017  11.976  1.00  0.00     0.002 A 
HETATM   23  C   UNL     1     -39.362 -45.027  12.873  1.00  0.00     0.002 A 
HETATM   24  C   UNL     1     -39.873 -46.325  12.745  1.00  0.00     0.032 A 
ENDBRANCH  14  15
ENDBRANCH   1  14
TORSDOF 7
ENDMDL
MODEL 6
REMARK VINA RESULT:      -6.0      3.959      6.573
REMARK  7 active torsions:
REMARK  status: ('A' for Active; 'I' for Inactive)
REMARK    1  A    between atoms: O_2  and  C_3 
REMARK    2  A    between atoms: C_6  and  O_7 
REMARK    3  A    between atoms: O_7  and  C_8 
REMARK    4  A    between atoms: C_8  and  C_9 
REMARK    5  A    between atoms: C_9  and  O_10 
REMARK    6  A    between atoms: C_9  and  C_11 
REMARK    7  A    between atoms: C_11  and  N_12 
ROOT
HETATM    1  C   UNL     1     -40.888 -53.033  12.785  1.00  0.00     0.160 C 
ENDROOT
BRANCH   1   2
HETATM    2  C   UNL     1     -39.815 -53.437  13.810  1.00  0.00     0.209 C 
BRANCH   2   3
HETATM    3  O   UNL     1     -38.570 -52.871  13.382  1.00  0.00    -0.349 OA
BRANCH   3   4
HETATM    4  C   UNL     1     -38.345 -51.562  13.703  1.00  0.00     0.069 A 
HETATM    5  C   UNL     1     -37.950 -50.750  12.639  1.00  0.00     0.039 A 
HETATM    6  C   UNL     1     -37.719 -49.387  12.836  1.00  0.00     0.039 A 
HETATM    7  C   UNL     1     -37.919 -48.815  14.092  1.00  0.00     0.068 A 
HETATM    8  C   UNL     1     -38.314 -49.623  15.157  1.00  0.00     0.039 A 
HETATM    9  C   UNL     1     -38.527 -50.995  14.963  1.00  0.00     0.039 A 
BRANCH   7  10
HETATM   10  O   UNL     1     -37.666 -47.472  14.170  1.00  0.00    -0.356 OA
HETATM   11  C   UNL     1     -38.759 -46.666  14.603  1.00  0.00     0.210 C 
ENDBRANCH   7  10
ENDBRANCH   3   4
ENDBRANCH   2   3
ENDBRANCH   1   2
BRANCH   1  12
HETATM   12  O   UNL     1     -40.463 -53.487  11.491  1.00  0.00    -0.392 OA
HETATM   13  H   UNL     1     -39.487 -53.486  11.490  1.00  0.00     0.210 HD
ENDBRANCH   1  12
BRANCH   1  14
HETATM   14  C   UNL     1     -42.252 -53.640  13.133  1.00  0.00     0.164 C 
BRANCH  14  15
HETATM   15  N   UNL     1     -43.284 -52.640  13.340  1.00  0.00    -0.339 N 
HETATM   16  C   UNL     1     -43.218 -51.351  12.888  1.00  0.00     0.184 A 
HETATM   17  N   UNL     1     -44.330 -50.692  13.125  1.00  0.00    -0.350 N 
HETATM   18  C   UNL     1     -45.143 -51.587  13.771  1.00  0.00     0.060 A 
ATOM     19  HN  UNL     1     -44.541 -49.725  12.881  1.00  0.00     0.166 HD
HETATM   20  C   UNL     1     -46.449 -51.413  14.252  1.00  0.00     0.032 A 
HETATM   21  C   UNL     1     -44.511 -52.822  13.929  1.00  0.00     0.062 A 
HETATM   22  C   UNL     1     -47.083 -52.488  14.883  1.00  0.00     0.002 A 
HETATM   23  C   UNL     1     -46.431 -53.714  15.035  1.00  0.00     0.002 A 
HETATM   24  C   UNL     1     -45.128 -53.909  14.560  1.00  0.00     0.032 A 
ENDBRANCH  14  15
ENDBRANCH   1  14
TORSDOF 7
ENDMDL
MODEL 7
REMARK VINA RESULT:      -5.7      4.162      6.356
REMARK  7 active torsions:
REMARK  status: ('A' for Active; 'I' for Inactive)
REMARK    1  A    between atoms: O_2  and  C_3 
REMARK    2  A    between atoms: C_6  and  O_7 
REMARK    3  A    between atoms: O_7  and  C_8 
REMARK    4  A    between atoms: C_8  and  C_9 
REMARK    5  A    between atoms: C_9  and  O_10 
REMARK    6  A    between atoms: C_9  and  C_11 
REMARK    7  A    between atoms: C_11  and  N_12 
ROOT
HETATM    1  C   UNL     1     -40.812 -53.365  12.900  1.00  0.00     0.160 C 
ENDROOT
BRANCH   1   2
HETATM    2  C   UNL     1     -39.750 -54.137  13.701  1.00  0.00     0.209 C 
BRANCH   2   3
HETATM    3  O   UNL     1     -40.049 -53.971  15.094  1.00  0.00    -0.349 OA
BRANCH   3   4
HETATM    4  C   UNL     1     -39.779 -55.030  15.913  1.00  0.00     0.069 A 
HETATM    5  C   UNL     1     -40.885 -55.806  16.263  1.00  0.00     0.039 A 
HETATM    6  C   UNL     1     -40.731 -56.934  17.072  1.00  0.00     0.039 A 
HETATM    7  C   UNL     1     -39.464 -57.318  17.507  1.00  0.00     0.068 A 
HETATM    8  C   UNL     1     -38.357 -56.545  17.160  1.00  0.00     0.039 A 
HETATM    9  C   UNL     1     -38.514 -55.403  16.363  1.00  0.00     0.039 A 
BRANCH   7  10
HETATM   10  O   UNL     1     -39.430 -58.439  18.292  1.00  0.00    -0.356 OA
HETATM   11  C   UNL     1     -38.151 -58.778  18.822  1.00  0.00     0.210 C 
ENDBRANCH   7  10
ENDBRANCH   3   4
ENDBRANCH   2   3
ENDBRANCH   1   2
BRANCH   1  12
HETATM   12  O   UNL     1     -40.507 -53.504  11.504  1.00  0.00    -0.392 OA
HETATM   13  H   UNL     1     -40.058 -54.364  11.390  1.00  0.00     0.210 HD
ENDBRANCH   1  12
BRANCH   1  14
HETATM   14  C   UNL     1     -42.222 -53.895  13.185  1.00  0.00     0.164 C 
BRANCH  14  15
HETATM   15  N   UNL     1     -43.202 -52.839  13.361  1.00  0.00    -0.339 N 
HETATM   16  C   UNL     1     -43.062 -51.563  12.890  1.00  0.00     0.184 A 
HETATM   17  N   UNL     1     -44.140 -50.842  13.101  1.00  0.00    -0.350 N 
HETATM   18  C   UNL     1     -45.008 -51.682  13.750  1.00  0.00     0.060 A 
ATOM     19  HN  UNL     1     -44.297 -49.869  12.839  1.00  0.00     0.166 HD
HETATM   20  C   UNL     1     -46.309 -51.431  14.209  1.00  0.00     0.032 A 
HETATM   21  C   UNL     1     -44.445 -52.946  13.935  1.00  0.00     0.062 A 
HETATM   22  C   UNL     1     -47.009 -52.461  14.847  1.00  0.00     0.002 A 
HETATM   23  C   UNL     1     -46.425 -53.717  15.027  1.00  0.00     0.002 A 
HETATM   24  C   UNL     1     -45.127 -53.988  14.574  1.00  0.00     0.032 A 
ENDBRANCH  14  15
ENDBRANCH   1  14
TORSDOF 7
ENDMDL
MODEL 8
REMARK VINA RESULT:      -5.7      1.368      2.105
REMARK  7 active torsions:
REMARK  status: ('A' for Active; 'I' for Inactive)
REMARK    1  A    between atoms: O_2  and  C_3 
REMARK    2  A    between atoms: C_6  and  O_7 
REMARK    3  A    between atoms: O_7  and  C_8 
REMARK    4  A    between atoms: C_8  and  C_9 
REMARK    5  A    between atoms: C_9  and  O_10 
REMARK    6  A    between atoms: C_9  and  C_11 
REMARK    7  A    between atoms: C_11  and  N_12 
ROOT
HETATM    1  C   UNL     1     -39.882 -49.463  11.428  1.00  0.00     0.160 C 
ENDROOT
BRANCH   1   2
HETATM    2  C   UNL     1     -39.431 -50.572  12.393  1.00  0.00     0.209 C 
BRANCH   2   3
HETATM    3  O   UNL     1     -40.331 -51.677  12.237  1.00  0.00    -0.349 OA
BRANCH   3   4
HETATM    4  C   UNL     1     -40.377 -52.584  13.257  1.00  0.00     0.069 A 
HETATM    5  C   UNL     1     -41.548 -53.339  13.327  1.00  0.00     0.039 A 
HETATM    6  C   UNL     1     -41.700 -54.320  14.309  1.00  0.00     0.039 A 
HETATM    7  C   UNL     1     -40.667 -54.581  15.208  1.00  0.00     0.068 A 
HETATM    8  C   UNL     1     -39.496 -53.828  15.141  1.00  0.00     0.039 A 
HETATM    9  C   UNL     1     -39.350 -52.831  14.167  1.00  0.00     0.039 A 
BRANCH   7  10
HETATM   10  O   UNL     1     -40.923 -55.563  16.126  1.00  0.00    -0.356 OA
HETATM   11  C   UNL     1     -40.539 -55.267  17.465  1.00  0.00     0.210 C 
ENDBRANCH   7  10
ENDBRANCH   3   4
ENDBRANCH   2   3
ENDBRANCH   1   2
BRANCH   1  12
HETATM   12  O   UNL     1     -40.440 -50.086  10.261  1.00  0.00    -0.392 OA
HETATM   13  H   UNL     1     -41.137 -49.493   9.921  1.00  0.00     0.210 HD
ENDBRANCH   1  12
BRANCH   1  14
HETATM   14  C   UNL     1     -40.921 -48.542  12.079  1.00  0.00     0.164 C 
BRANCH  14  15
HETATM   15  N   UNL     1     -41.330 -47.447  11.217  1.00  0.00    -0.339 N 
HETATM   16  C   UNL     1     -40.509 -46.434  10.807  1.00  0.00     0.184 A 
HETATM   17  N   UNL     1     -41.108 -45.635   9.953  1.00  0.00    -0.350 N 
HETATM   18  C   UNL     1     -42.374 -46.143   9.817  1.00  0.00     0.060 A 
ATOM     19  HN  UNL     1     -40.716 -44.814   9.491  1.00  0.00     0.166 HD
HETATM   20  C   UNL     1     -43.435 -45.682   9.025  1.00  0.00     0.032 A 
HETATM   21  C   UNL     1     -42.549 -47.282  10.606  1.00  0.00     0.062 A 
HETATM   22  C   UNL     1     -44.648 -46.380   9.051  1.00  0.00     0.002 A 
HETATM   23  C   UNL     1     -44.803 -47.513   9.851  1.00  0.00     0.002 A 
HETATM   24  C   UNL     1     -43.755 -47.991  10.648  1.00  0.00     0.032 A 
ENDBRANCH  14  15
ENDBRANCH   1  14
TORSDOF 7
ENDMDL
MODEL 9
REMARK VINA RESULT:      -5.6      4.523      7.136
REMARK  7 active torsions:
REMARK  status: ('A' for Active; 'I' for Inactive)
REMARK    1  A    between atoms: O_2  and  C_3 
REMARK    2  A    between atoms: C_6  and  O_7 
REMARK    3  A    between atoms: O_7  and  C_8 
REMARK    4  A    between atoms: C_8  and  C_9 
REMARK    5  A    between atoms: C_9  and  O_10 
REMARK    6  A    between atoms: C_9  and  C_11 
REMARK    7  A    between atoms: C_11  and  N_12 
ROOT
HETATM    1  C   UNL     1     -42.311 -53.061  13.019  1.00  0.00     0.160 C 
ENDROOT
BRANCH   1   2
HETATM    2  C   UNL     1     -40.821 -53.341  12.763  1.00  0.00     0.209 C 
BRANCH   2   3
HETATM    3  O   UNL     1     -40.282 -52.215  12.057  1.00  0.00    -0.349 OA
BRANCH   3   4
HETATM    4  C   UNL     1     -39.474 -51.372  12.766  1.00  0.00     0.069 A 
HETATM    5  C   UNL     1     -39.088 -51.838  14.024  1.00  0.00     0.039 A 
HETATM    6  C   UNL     1     -38.238 -51.079  14.830  1.00  0.00     0.039 A 
HETATM    7  C   UNL     1     -37.733 -49.863  14.370  1.00  0.00     0.068 A 
HETATM    8  C   UNL     1     -38.116 -49.394  13.114  1.00  0.00     0.039 A 
HETATM    9  C   UNL     1     -38.985 -50.148  12.312  1.00  0.00     0.039 A 
BRANCH   7  10
HETATM   10  O   UNL     1     -36.908 -49.204  15.241  1.00  0.00    -0.356 OA
HETATM   11  C   UNL     1     -36.842 -47.791  15.073  1.00  0.00     0.210 C 
ENDBRANCH   7  10
ENDBRANCH   3   4
ENDBRANCH   2   3
ENDBRANCH   1   2
BRANCH   1  12
HETATM   12  O   UNL     1     -42.986 -53.043  11.752  1.00  0.00    -0.392 OA
HETATM   13  H   UNL     1     -42.380 -53.437  11.096  1.00  0.00     0.210 HD
ENDBRANCH   1  12
BRANCH   1  14
HETATM   14  C   UNL     1     -42.932 -54.125  13.931  1.00  0.00     0.164 C 
BRANCH  14  15
HETATM   15  N   UNL     1     -44.359 -53.943  14.128  1.00  0.00    -0.339 N 
HETATM   16  C   UNL     1     -45.316 -54.848  13.760  1.00  0.00     0.184 A 
HETATM   17  N   UNL     1     -46.515 -54.477  14.147  1.00  0.00    -0.350 N 
HETATM   18  C   UNL     1     -46.329 -53.274  14.778  1.00  0.00     0.060 A 
ATOM     19  HN  UNL     1     -47.394 -54.975  14.008  1.00  0.00     0.166 HD
HETATM   20  C   UNL     1     -47.274 -52.435  15.386  1.00  0.00     0.032 A 
HETATM   21  C   UNL     1     -44.982 -52.906  14.777  1.00  0.00     0.062 A 
HETATM   22  C   UNL     1     -46.837 -51.244  15.976  1.00  0.00     0.002 A 
HETATM   23  C   UNL     1     -45.486 -50.892  15.959  1.00  0.00     0.002 A 
HETATM   24  C   UNL     1     -44.526 -51.717  15.359  1.00  0.00     0.032 A 
ENDBRANCH  14  15
ENDBRANCH   1  14
TORSDOF 7
ENDMDL
