MODEL 1
REMARK VINA RESULT:      -6.0      0.000      0.000
REMARK  2 active torsions:
REMARK  status: ('A' for Active; 'I' for Inactive)
REMARK    1  A    between atoms: C_8  and  N_9 
REMARK       I    between atoms: N_9  and  C_10 
REMARK       I    between atoms: C_10  and  N_12 
REMARK    2  A    between atoms: N_12  and  C_13 
ROOT
HETATM    1  N   UNL     1     -42.594 -53.647  12.386  1.00  0.00    -0.294 N 
HETATM    2  C   UNL     1     -41.559 -52.746  12.413  1.00  0.00     0.322 C 
HETATM    3  O   UNL     1     -40.448 -53.051  11.980  1.00  0.00    -0.247 OA
HETATM    4  N   UNL     1     -41.875 -51.502  12.856  1.00  0.00    -0.337 N 
HETATM    5  H   UNL     1     -42.372 -54.503  11.902  1.00  0.00     0.172 HD
HETATM    6  H   UNL     1     -42.772 -51.453  13.337  1.00  0.00     0.164 HD
ENDROOT
BRANCH   1   7
HETATM    7  C   UNL     1     -43.894 -53.462  12.892  1.00  0.00     0.114 A 
HETATM    8  C   UNL     1     -44.300 -54.083  14.074  1.00  0.00    -0.018 A 
HETATM    9  C   UNL     1     -43.414 -54.960  14.908  1.00  0.00     0.052 C 
HETATM   10  C   UNL     1     -45.622 -53.864  14.497  1.00  0.00     0.012 A 
HETATM   11  C   UNL     1     -46.480 -53.057  13.759  1.00  0.00     0.018 A 
HETATM   12  C   UNL     1     -45.988 -52.474  12.615  1.00  0.00     0.089 A 
HETATM   13  N   UNL     1     -44.730 -52.667  12.174  1.00  0.00    -0.352 N 
ATOM     14  HN  UNL     1     -44.410 -52.222  11.314  1.00  0.00     0.166 HD
ENDBRANCH   1   7
BRANCH   4  15
HETATM   15  C   UNL     1     -41.005 -50.350  12.968  1.00  0.00     0.104 C 
HETATM   16  C   UNL     1     -41.642 -49.262  13.833  1.00  0.00     0.036 C 
HETATM   17  C   UNL     1     -42.934 -48.724  13.217  1.00  0.00     0.105 C 
HETATM   18  C   UNL     1     -42.866 -48.463  11.725  1.00  0.00     0.217 C 
HETATM   19  O   UNL     1     -43.662 -47.719  11.154  1.00  0.00    -0.274 OA
HETATM   20  N   UNL     1     -41.959 -49.178  10.998  1.00  0.00    -0.359 N 
HETATM   21  C   UNL     1     -40.760 -49.762  11.572  1.00  0.00     0.147 C 
HETATM   22  H   UNL     1     -41.965 -48.956  10.009  1.00  0.00     0.162 HD
ENDBRANCH   4  15
TORSDOF 2
ENDMDL
MODEL 2
REMARK VINA RESULT:      -6.0      2.299      3.430
REMARK  2 active torsions:
REMARK  status: ('A' for Active; 'I' for Inactive)
REMARK    1  A    between atoms: C_8  and  N_9 
REMARK       I    between atoms: N_9  and  C_10 
REMARK       I    between atoms: C_10  and  N_12 
REMARK    2  A    between atoms: N_12  and  C_13 
ROOT
HETATM    1  N   UNL     1     -44.888 -54.723  14.796  1.00  0.00    -0.294 N 
HETATM    2  C   UNL     1     -43.542 -54.953  14.922  1.00  0.00     0.322 C 
HETATM    3  O   UNL     1     -43.126 -55.985  15.447  1.00  0.00    -0.247 OA
HETATM    4  N   UNL     1     -42.731 -54.023  14.355  1.00  0.00    -0.337 N 
HETATM    5  H   UNL     1     -45.460 -55.504  15.078  1.00  0.00     0.172 HD
HETATM    6  H   UNL     1     -43.207 -53.154  14.117  1.00  0.00     0.164 HD
ENDROOT
BRANCH   1   7
HETATM    7  C   UNL     1     -45.508 -53.572  14.273  1.00  0.00     0.114 A 
HETATM    8  C   UNL     1     -45.966 -52.557  15.113  1.00  0.00    -0.018 A 
HETATM    9  C   UNL     1     -45.826 -52.578  16.606  1.00  0.00     0.052 C 
HETATM   10  C   UNL     1     -46.593 -51.454  14.510  1.00  0.00     0.012 A 
HETATM   11  C   UNL     1     -46.744 -51.388  13.130  1.00  0.00     0.018 A 
HETATM   12  C   UNL     1     -46.248 -52.429  12.380  1.00  0.00     0.089 A 
HETATM   13  N   UNL     1     -45.648 -53.506  12.923  1.00  0.00    -0.352 N 
ATOM     14  HN  UNL     1     -45.303 -54.260  12.329  1.00  0.00     0.166 HD
ENDBRANCH   1   7
BRANCH   4  15
HETATM   15  C   UNL     1     -41.284 -54.016  14.305  1.00  0.00     0.104 C 
HETATM   16  C   UNL     1     -40.724 -52.685  14.811  1.00  0.00     0.036 C 
HETATM   17  C   UNL     1     -41.156 -51.511  13.932  1.00  0.00     0.105 C 
HETATM   18  C   UNL     1     -41.071 -51.768  12.440  1.00  0.00     0.217 C 
HETATM   19  O   UNL     1     -41.034 -50.854  11.620  1.00  0.00    -0.274 OA
HETATM   20  N   UNL     1     -41.159 -53.063  12.016  1.00  0.00    -0.359 N 
HETATM   21  C   UNL     1     -40.824 -54.201  12.854  1.00  0.00     0.147 C 
HETATM   22  H   UNL     1     -41.096 -53.166  11.010  1.00  0.00     0.162 HD
ENDBRANCH   4  15
TORSDOF 2
ENDMDL
MODEL 3
REMARK VINA RESULT:      -5.9      4.349      6.183
REMARK  2 active torsions:
REMARK  status: ('A' for Active; 'I' for Inactive)
REMARK    1  A    between atoms: C_8  and  N_9 
REMARK       I    between atoms: N_9  and  C_10 
REMARK       I    between atoms: C_10  and  N_12 
REMARK    2  A    between atoms: N_12  and  C_13 
ROOT
HETATM    1  N   UNL     1     -41.145 -49.298  10.728  1.00  0.00    -0.294 N 
HETATM    2  C   UNL     1     -41.567 -48.086  10.243  1.00  0.00     0.322 C 
HETATM    3  O   UNL     1     -42.586 -48.002   9.560  1.00  0.00    -0.247 OA
HETATM    4  N   UNL     1     -40.841 -47.010  10.642  1.00  0.00    -0.337 N 
HETATM    5  H   UNL     1     -41.792 -50.051  10.553  1.00  0.00     0.172 HD
HETATM    6  H   UNL     1     -39.940 -47.251  11.053  1.00  0.00     0.164 HD
ENDROOT
BRANCH   1   7
HETATM    7  C   UNL     1     -39.977 -49.557  11.470  1.00  0.00     0.114 A 
HETATM    8  C   UNL     1     -39.988 -49.517  12.865  1.00  0.00    -0.018 A 
HETATM    9  C   UNL     1     -41.210 -49.228  13.686  1.00  0.00     0.052 C 
HETATM   10  C   UNL     1     -38.774 -49.765  13.528  1.00  0.00     0.012 A 
HETATM   11  C   UNL     1     -37.616 -50.041  12.810  1.00  0.00     0.018 A 
HETATM   12  C   UNL     1     -37.704 -50.073  11.438  1.00  0.00     0.089 A 
HETATM   13  N   UNL     1     -38.847 -49.833  10.768  1.00  0.00    -0.352 N 
ATOM     14  HN  UNL     1     -38.864 -49.859   9.749  1.00  0.00     0.166 HD
ENDBRANCH   1   7
BRANCH   4  15
HETATM   15  C   UNL     1     -41.065 -45.617  10.316  1.00  0.00     0.104 C 
HETATM   16  C   UNL     1     -39.817 -44.780  10.601  1.00  0.00     0.036 C 
HETATM   17  C   UNL     1     -39.451 -44.785  12.086  1.00  0.00     0.105 C 
HETATM   18  C   UNL     1     -40.624 -44.611  13.030  1.00  0.00     0.217 C 
HETATM   19  O   UNL     1     -40.478 -44.243  14.194  1.00  0.00    -0.274 OA
HETATM   20  N   UNL     1     -41.856 -44.995  12.586  1.00  0.00    -0.359 N 
HETATM   21  C   UNL     1     -42.209 -45.070  11.179  1.00  0.00     0.147 C 
HETATM   22  H   UNL     1     -42.595 -44.854  13.264  1.00  0.00     0.162 HD
ENDBRANCH   4  15
TORSDOF 2
ENDMDL
MODEL 4
REMARK VINA RESULT:      -5.8      1.785      2.532
REMARK  2 active torsions:
REMARK  status: ('A' for Active; 'I' for Inactive)
REMARK    1  A    between atoms: C_8  and  N_9 
REMARK       I    between atoms: N_9  and  C_10 
REMARK       I    between atoms: C_10  and  N_12 
REMARK    2  A    between atoms: N_12  and  C_13 
ROOT
HETATM    1  N   UNL     1     -40.405 -51.944  11.768  1.00  0.00    -0.294 N 
HETATM    2  C   UNL     1     -40.166 -50.597  11.869  1.00  0.00     0.322 C 
HETATM    3  O   UNL     1     -39.165 -50.096  11.358  1.00  0.00    -0.247 OA
HETATM    4  N   UNL     1     -41.138 -49.873  12.480  1.00  0.00    -0.337 N 
HETATM    5  H   UNL     1     -39.753 -52.427  11.171  1.00  0.00     0.172 HD
HETATM    6  H   UNL     1     -41.808 -50.439  12.998  1.00  0.00     0.164 HD
ENDROOT
BRANCH   1   7
HETATM    7  C   UNL     1     -41.469 -52.664  12.344  1.00  0.00     0.114 A 
HETATM    8  C   UNL     1     -41.254 -53.526  13.420  1.00  0.00    -0.018 A 
HETATM    9  C   UNL     1     -39.918 -53.747  14.063  1.00  0.00     0.052 C 
HETATM   10  C   UNL     1     -42.367 -54.224  13.921  1.00  0.00     0.012 A 
HETATM   11  C   UNL     1     -43.627 -54.050  13.359  1.00  0.00     0.018 A 
HETATM   12  C   UNL     1     -43.746 -53.167  12.311  1.00  0.00     0.089 A 
HETATM   13  N   UNL     1     -42.701 -52.487  11.799  1.00  0.00    -0.352 N 
ATOM     14  HN  UNL     1     -42.834 -51.850  11.015  1.00  0.00     0.166 HD
ENDBRANCH   1   7
BRANCH   4  15
HETATM   15  C   UNL     1     -41.173 -48.442  12.704  1.00  0.00     0.104 C 
HETATM   16  C   UNL     1     -42.613 -47.936  12.796  1.00  0.00     0.036 C 
HETATM   17  C   UNL     1     -43.381 -48.152  11.491  1.00  0.00     0.105 C 
HETATM   18  C   UNL     1     -42.610 -47.801  10.234  1.00  0.00     0.217 C 
HETATM   19  O   UNL     1     -43.170 -47.577   9.164  1.00  0.00    -0.274 OA
HETATM   20  N   UNL     1     -41.247 -47.856  10.292  1.00  0.00    -0.359 N 
HETATM   21  C   UNL     1     -40.495 -47.727  11.528  1.00  0.00     0.147 C 
HETATM   22  H   UNL     1     -40.793 -47.611   9.420  1.00  0.00     0.162 HD
ENDBRANCH   4  15
TORSDOF 2
ENDMDL
MODEL 5
REMARK VINA RESULT:      -5.8      2.806      5.360
REMARK  2 active torsions:
REMARK  status: ('A' for Active; 'I' for Inactive)
REMARK    1  A    between atoms: C_8  and  N_9 
REMARK       I    between atoms: N_9  and  C_10 
REMARK       I    between atoms: C_10  and  N_12 
REMARK    2  A    between atoms: N_12  and  C_13 
ROOT
HETATM    1  N   UNL     1     -43.493 -53.042  11.990  1.00  0.00    -0.294 N 
HETATM    2  C   UNL     1     -44.703 -52.721  12.550  1.00  0.00     0.322 C 
HETATM    3  O   UNL     1     -45.748 -53.195  12.106  1.00  0.00    -0.247 OA
HETATM    4  N   UNL     1     -44.648 -51.936  13.657  1.00  0.00    -0.337 N 
HETATM    5  H   UNL     1     -43.554 -53.752  11.277  1.00  0.00     0.172 HD
HETATM    6  H   UNL     1     -43.744 -51.487  13.797  1.00  0.00     0.164 HD
ENDROOT
BRANCH   1   7
HETATM    7  C   UNL     1     -42.229 -52.539  12.350  1.00  0.00     0.114 A 
HETATM    8  C   UNL     1     -41.462 -53.162  13.335  1.00  0.00    -0.018 A 
HETATM    9  C   UNL     1     -41.882 -54.402  14.065  1.00  0.00     0.052 C 
HETATM   10  C   UNL     1     -40.222 -52.581  13.651  1.00  0.00     0.012 A 
HETATM   11  C   UNL     1     -39.787 -51.433  12.999  1.00  0.00     0.018 A 
HETATM   12  C   UNL     1     -40.605 -50.897  12.031  1.00  0.00     0.089 A 
HETATM   13  N   UNL     1     -41.803 -51.420  11.707  1.00  0.00    -0.352 N 
ATOM     14  HN  UNL     1     -42.381 -50.983  10.990  1.00  0.00     0.166 HD
ENDBRANCH   1   7
BRANCH   4  15
HETATM   15  C   UNL     1     -45.750 -51.464  14.469  1.00  0.00     0.104 C 
HETATM   16  C   UNL     1     -45.285 -51.132  15.887  1.00  0.00     0.036 C 
HETATM   17  C   UNL     1     -44.753 -52.365  16.619  1.00  0.00     0.105 C 
HETATM   18  C   UNL     1     -45.592 -53.616  16.448  1.00  0.00     0.217 C 
HETATM   19  O   UNL     1     -45.517 -54.566  17.225  1.00  0.00    -0.274 OA
HETATM   20  N   UNL     1     -46.358 -53.716  15.323  1.00  0.00    -0.359 N 
HETATM   21  C   UNL     1     -46.816 -52.563  14.566  1.00  0.00     0.147 C 
HETATM   22  H   UNL     1     -46.893 -54.574  15.269  1.00  0.00     0.162 HD
ENDBRANCH   4  15
TORSDOF 2
ENDMDL
MODEL 6
REMARK VINA RESULT:      -5.6      1.758      2.100
REMARK  2 active torsions:
REMARK  status: ('A' for Active; 'I' for Inactive)
REMARK    1  A    between atoms: C_8  and  N_9 
REMARK       I    between atoms: N_9  and  C_10 
REMARK       I    between atoms: C_10  and  N_12 
REMARK    2  A    between atoms: N_12  and  C_13 
ROOT
HETATM    1  N   UNL     1     -42.602 -52.287  12.775  1.00  0.00    -0.294 N 
HETATM    2  C   UNL     1     -41.689 -51.402  12.259  1.00  0.00     0.322 C 
HETATM    3  O   UNL     1     -40.522 -51.741  12.069  1.00  0.00    -0.247 OA
HETATM    4  N   UNL     1     -42.185 -50.189  11.902  1.00  0.00    -0.337 N 
HETATM    5  H   UNL     1     -42.244 -53.224  12.875  1.00  0.00     0.172 HD
HETATM    6  H   UNL     1     -43.113 -49.998  12.277  1.00  0.00     0.164 HD
ENDROOT
BRANCH   1   7
HETATM    7  C   UNL     1     -43.948 -52.029  13.097  1.00  0.00     0.114 A 
HETATM    8  C   UNL     1     -44.290 -51.376  14.282  1.00  0.00    -0.018 A 
HETATM    9  C   UNL     1     -43.292 -50.880  15.285  1.00  0.00     0.052 C 
HETATM   10  C   UNL     1     -45.658 -51.178  14.538  1.00  0.00     0.012 A 
HETATM   11  C   UNL     1     -46.621 -51.618  13.637  1.00  0.00     0.018 A 
HETATM   12  C   UNL     1     -46.188 -52.238  12.488  1.00  0.00     0.089 A 
HETATM   13  N   UNL     1     -44.888 -52.453  12.212  1.00  0.00    -0.352 N 
ATOM     14  HN  UNL     1     -44.613 -52.926  11.352  1.00  0.00     0.166 HD
ENDBRANCH   1   7
BRANCH   4  15
HETATM   15  C   UNL     1     -41.471 -49.076  11.312  1.00  0.00     0.104 C 
HETATM   16  C   UNL     1     -40.655 -48.326  12.365  1.00  0.00     0.036 C 
HETATM   17  C   UNL     1     -41.544 -47.701  13.441  1.00  0.00     0.105 C 
HETATM   18  C   UNL     1     -42.786 -47.009  12.915  1.00  0.00     0.217 C 
HETATM   19  O   UNL     1     -43.399 -46.174  13.577  1.00  0.00    -0.274 OA
HETATM   20  N   UNL     1     -43.285 -47.428  11.716  1.00  0.00    -0.359 N 
HETATM   21  C   UNL     1     -42.479 -48.091  10.705  1.00  0.00     0.147 C 
HETATM   22  H   UNL     1     -44.114 -46.926  11.422  1.00  0.00     0.162 HD
ENDBRANCH   4  15
TORSDOF 2
ENDMDL
MODEL 7
REMARK VINA RESULT:      -5.5      2.377      4.231
REMARK  2 active torsions:
REMARK  status: ('A' for Active; 'I' for Inactive)
REMARK    1  A    between atoms: C_8  and  N_9 
REMARK       I    between atoms: N_9  and  C_10 
REMARK       I    between atoms: C_10  and  N_12 
REMARK    2  A    between atoms: N_12  and  C_13 
ROOT
HETATM    1  N   UNL     1     -43.302 -50.050  12.626  1.00  0.00    -0.294 N 
HETATM    2  C   UNL     1     -42.117 -50.670  12.321  1.00  0.00     0.322 C 
HETATM    3  O   UNL     1     -41.238 -50.078  11.697  1.00  0.00    -0.247 OA
HETATM    4  N   UNL     1     -41.962 -51.921  12.828  1.00  0.00    -0.337 N 
HETATM    5  H   UNL     1     -43.321 -49.073  12.380  1.00  0.00     0.172 HD
HETATM    6  H   UNL     1     -42.829 -52.337  13.166  1.00  0.00     0.164 HD
ENDROOT
BRANCH   1   7
HETATM    7  C   UNL     1     -44.414 -50.614  13.279  1.00  0.00     0.114 A 
HETATM    8  C   UNL     1     -44.509 -50.606  14.671  1.00  0.00    -0.018 A 
HETATM    9  C   UNL     1     -43.484 -49.995  15.578  1.00  0.00     0.052 C 
HETATM   10  C   UNL     1     -45.641 -51.211  15.244  1.00  0.00     0.012 A 
HETATM   11  C   UNL     1     -46.620 -51.788  14.445  1.00  0.00     0.018 A 
HETATM   12  C   UNL     1     -46.448 -51.735  13.081  1.00  0.00     0.089 A 
HETATM   13  N   UNL     1     -45.374 -51.172  12.496  1.00  0.00    -0.352 N 
ATOM     14  HN  UNL     1     -45.283 -51.164  11.481  1.00  0.00     0.166 HD
ENDBRANCH   1   7
BRANCH   4  15
HETATM   15  C   UNL     1     -40.818 -52.798  12.696  1.00  0.00     0.104 C 
HETATM   16  C   UNL     1     -41.197 -54.246  13.010  1.00  0.00     0.036 C 
HETATM   17  C   UNL     1     -41.661 -54.416  14.458  1.00  0.00     0.105 C 
HETATM   18  C   UNL     1     -40.816 -53.689  15.485  1.00  0.00     0.217 C 
HETATM   19  O   UNL     1     -40.826 -53.996  16.676  1.00  0.00    -0.274 OA
HETATM   20  N   UNL     1     -40.121 -52.589  15.071  1.00  0.00    -0.359 N 
HETATM   21  C   UNL     1     -39.730 -52.368  13.689  1.00  0.00     0.147 C 
HETATM   22  H   UNL     1     -39.578 -52.151  15.804  1.00  0.00     0.162 HD
ENDBRANCH   4  15
TORSDOF 2
ENDMDL
MODEL 8
REMARK VINA RESULT:      -5.5      2.809      4.482
REMARK  2 active torsions:
REMARK  status: ('A' for Active; 'I' for Inactive)
REMARK    1  A    between atoms: C_8  and  N_9 
REMARK       I    between atoms: N_9  and  C_10 
REMARK       I    between atoms: C_10  and  N_12 
REMARK    2  A    between atoms: N_12  and  C_13 
ROOT
HETATM    1  N   UNL     1     -42.144 -50.662  11.804  1.00  0.00    -0.294 N 
HETATM    2  C   UNL     1     -41.176 -49.747  11.477  1.00  0.00     0.322 C 
HETATM    3  O   UNL     1     -41.434 -48.790  10.748  1.00  0.00    -0.247 OA
HETATM    4  N   UNL     1     -39.972 -49.926  12.078  1.00  0.00    -0.337 N 
HETATM    5  H   UNL     1     -43.064 -50.411  11.476  1.00  0.00     0.172 HD
HETATM    6  H   UNL     1     -39.860 -50.844  12.507  1.00  0.00     0.164 HD
ENDROOT
BRANCH   1   7
HETATM    7  C   UNL     1     -41.985 -51.829  12.575  1.00  0.00     0.114 A 
HETATM    8  C   UNL     1     -42.442 -51.887  13.892  1.00  0.00    -0.018 A 
HETATM    9  C   UNL     1     -43.146 -50.760  14.586  1.00  0.00     0.052 C 
HETATM   10  C   UNL     1     -42.223 -53.082  14.599  1.00  0.00     0.012 A 
HETATM   11  C   UNL     1     -41.577 -54.156  13.997  1.00  0.00     0.018 A 
HETATM   12  C   UNL     1     -41.175 -54.012  12.689  1.00  0.00     0.089 A 
HETATM   13  N   UNL     1     -41.360 -52.880  11.983  1.00  0.00    -0.352 N 
ATOM     14  HN  UNL     1     -41.036 -52.814  11.018  1.00  0.00     0.166 HD
ENDBRANCH   1   7
BRANCH   4  15
HETATM   15  C   UNL     1     -38.782 -49.110  11.948  1.00  0.00     0.104 C 
HETATM   16  C   UNL     1     -37.529 -49.980  11.839  1.00  0.00     0.036 C 
HETATM   17  C   UNL     1     -37.300 -50.815  13.100  1.00  0.00     0.105 C 
HETATM   18  C   UNL     1     -37.506 -50.069  14.403  1.00  0.00     0.217 C 
HETATM   19  O   UNL     1     -37.033 -50.465  15.466  1.00  0.00    -0.274 OA
HETATM   20  N   UNL     1     -38.344 -48.991  14.389  1.00  0.00    -0.359 N 
HETATM   21  C   UNL     1     -38.636 -48.223  13.191  1.00  0.00     0.147 C 
HETATM   22  H   UNL     1     -38.438 -48.537  15.290  1.00  0.00     0.162 HD
ENDBRANCH   4  15
TORSDOF 2
ENDMDL
MODEL 9
REMARK VINA RESULT:      -5.4      2.065      2.709
REMARK  2 active torsions:
REMARK  status: ('A' for Active; 'I' for Inactive)
REMARK    1  A    between atoms: C_8  and  N_9 
REMARK       I    between atoms: N_9  and  C_10 
REMARK       I    between atoms: C_10  and  N_12 
REMARK    2  A    between atoms: N_12  and  C_13 
ROOT
HETATM    1  N   UNL     1     -43.467 -53.987  15.663  1.00  0.00    -0.294 N 
HETATM    2  C   UNL     1     -42.206 -53.936  15.127  1.00  0.00     0.322 C 
HETATM    3  O   UNL     1     -41.306 -54.651  15.566  1.00  0.00    -0.247 OA
HETATM    4  N   UNL     1     -42.059 -53.126  14.047  1.00  0.00    -0.337 N 
HETATM    5  H   UNL     1     -43.585 -54.714  16.351  1.00  0.00     0.172 HD
HETATM    6  H   UNL     1     -42.833 -52.477  13.913  1.00  0.00     0.164 HD
ENDROOT
BRANCH   1   7
HETATM    7  C   UNL     1     -44.575 -53.196  15.306  1.00  0.00     0.114 A 
HETATM    8  C   UNL     1     -45.546 -53.675  14.426  1.00  0.00    -0.018 A 
HETATM    9  C   UNL     1     -45.521 -55.043  13.812  1.00  0.00     0.052 C 
HETATM   10  C   UNL     1     -46.608 -52.812  14.104  1.00  0.00     0.012 A 
HETATM   11  C   UNL     1     -46.677 -51.535  14.650  1.00  0.00     0.018 A 
HETATM   12  C   UNL     1     -45.682 -51.155  15.520  1.00  0.00     0.089 A 
HETATM   13  N   UNL     1     -44.645 -51.951  15.845  1.00  0.00    -0.352 N 
ATOM     14  HN  UNL     1     -43.924 -51.624  16.488  1.00  0.00     0.166 HD
ENDBRANCH   1   7
BRANCH   4  15
HETATM   15  C   UNL     1     -40.863 -52.895  13.264  1.00  0.00     0.104 C 
HETATM   16  C   UNL     1     -40.015 -51.777  13.873  1.00  0.00     0.036 C 
HETATM   17  C   UNL     1     -40.752 -50.437  13.875  1.00  0.00     0.105 C 
HETATM   18  C   UNL     1     -41.491 -50.116  12.591  1.00  0.00     0.217 C 
HETATM   19  O   UNL     1     -41.822 -48.969  12.295  1.00  0.00    -0.274 OA
HETATM   20  N   UNL     1     -41.894 -51.163  11.814  1.00  0.00    -0.359 N 
HETATM   21  C   UNL     1     -41.259 -52.469  11.845  1.00  0.00     0.147 C 
HETATM   22  H   UNL     1     -42.382 -50.881  10.972  1.00  0.00     0.162 HD
ENDBRANCH   4  15
TORSDOF 2
ENDMDL
