MODEL 1
REMARK VINA RESULT:      -5.7      0.000      0.000
REMARK  2 active torsions:
REMARK  status: ('A' for Active; 'I' for Inactive)
REMARK       I    between atoms: C_2  and  N_4 
REMARK    1  A    between atoms: C_7  and  N_10 
REMARK       I    between atoms: N_10  and  C_11 
REMARK       I    between atoms: C_11  and  N_13 
REMARK    2  A    between atoms: N_13  and  C_14 
ROOT
HETATM    1  N   UNL     1     -42.291 -51.148  12.208  1.00  0.00    -0.338 N 
HETATM    2  C   UNL     1     -41.787 -49.860  12.270  1.00  0.00     0.322 C 
HETATM    3  O   UNL     1     -41.108 -49.479  13.216  1.00  0.00    -0.247 OA
HETATM    4  N   UNL     1     -42.101 -49.151  11.137  1.00  0.00    -0.289 N 
HETATM    5  H   UNL     1     -43.174 -51.251  11.730  1.00  0.00     0.164 HD
HETATM    6  H   UNL     1     -42.413 -49.645  10.319  1.00  0.00     0.172 HD
ENDROOT
BRANCH   1   7
HETATM    7  C   UNL     1     -41.973 -52.092  13.279  1.00  0.00     0.089 C 
HETATM    8  C   UNL     1     -42.112 -53.539  12.809  1.00  0.00     0.045 C 
HETATM    9  C   UNL     1     -43.565 -53.971  12.667  1.00  0.00     0.127 C 
HETATM   10  N   UNL     1     -44.353 -53.658  13.857  1.00  0.00    -0.352 N 
HETATM   11  C   UNL     1     -45.422 -54.495  14.162  1.00  0.00     0.215 C 
HETATM   12  C   UNL     1     -44.255 -52.284  14.351  1.00  0.00     0.127 C 
HETATM   13  C   UNL     1     -46.245 -54.136  15.375  1.00  0.00     0.117 C 
HETATM   14  O   UNL     1     -45.686 -55.504  13.508  1.00  0.00    -0.274 OA
HETATM   15  C   UNL     1     -42.810 -51.846  14.537  1.00  0.00     0.045 C 
ENDBRANCH   1   7
BRANCH   4  16
HETATM   16  C   UNL     1     -41.596 -47.893  10.943  1.00  0.00     0.152 A 
HETATM   17  N   UNL     1     -40.359 -47.479  11.008  1.00  0.00    -0.346 N 
HETATM   18  C   UNL     1     -40.296 -46.155  10.630  1.00  0.00     0.097 A 
ATOM     19  HN  UNL     1     -39.562 -48.047  11.293  1.00  0.00     0.167 HD
HETATM   20  C   UNL     1     -41.506 -45.575  10.313  1.00  0.00     0.070 A 
HETATM   21  S   UNL     1     -42.768 -46.721  10.528  1.00  0.00    -0.064 SA
ENDBRANCH   4  16
TORSDOF 2
ENDMDL
MODEL 2
REMARK VINA RESULT:      -5.5      3.766      4.086
REMARK  2 active torsions:
REMARK  status: ('A' for Active; 'I' for Inactive)
REMARK       I    between atoms: C_2  and  N_4 
REMARK    1  A    between atoms: C_7  and  N_10 
REMARK       I    between atoms: N_10  and  C_11 
REMARK       I    between atoms: C_11  and  N_13 
REMARK    2  A    between atoms: N_13  and  C_14 
ROOT
HETATM    1  N   UNL     1     -40.332 -52.189  14.075  1.00  0.00    -0.338 N 
HETATM    2  C   UNL     1     -39.242 -51.348  13.917  1.00  0.00     0.322 C 
HETATM    3  O   UNL     1     -38.531 -51.398  12.922  1.00  0.00    -0.247 OA
HETATM    4  N   UNL     1     -39.142 -50.466  14.964  1.00  0.00    -0.289 N 
HETATM    5  H   UNL     1     -40.553 -52.446  15.025  1.00  0.00     0.164 HD
HETATM    6  H   UNL     1     -39.932 -50.333  15.571  1.00  0.00     0.172 HD
ENDROOT
BRANCH   1   7
HETATM    7  C   UNL     1     -40.665 -53.133  13.009  1.00  0.00     0.089 C 
HETATM    8  C   UNL     1     -41.634 -52.519  12.000  1.00  0.00     0.045 C 
HETATM    9  C   UNL     1     -43.053 -52.411  12.543  1.00  0.00     0.127 C 
HETATM   10  N   UNL     1     -43.520 -53.669  13.121  1.00  0.00    -0.352 N 
HETATM   11  C   UNL     1     -44.884 -53.941  13.058  1.00  0.00     0.215 C 
HETATM   12  C   UNL     1     -42.628 -54.302  14.093  1.00  0.00     0.127 C 
HETATM   13  C   UNL     1     -45.352 -55.228  13.691  1.00  0.00     0.117 C 
HETATM   14  O   UNL     1     -45.686 -53.198  12.494  1.00  0.00    -0.274 OA
HETATM   15  C   UNL     1     -41.214 -54.454  13.555  1.00  0.00     0.045 C 
ENDBRANCH   1   7
BRANCH   4  16
HETATM   16  C   UNL     1     -38.204 -49.469  14.945  1.00  0.00     0.152 A 
HETATM   17  N   UNL     1     -38.004 -48.538  14.050  1.00  0.00    -0.346 N 
HETATM   18  C   UNL     1     -37.021 -47.679  14.492  1.00  0.00     0.097 A 
ATOM     19  HN  UNL     1     -38.499 -48.459  13.162  1.00  0.00     0.167 HD
HETATM   20  C   UNL     1     -36.466 -47.997  15.713  1.00  0.00     0.070 A 
HETATM   21  S   UNL     1     -37.179 -49.441  16.311  1.00  0.00    -0.064 SA
ENDBRANCH   4  16
TORSDOF 2
ENDMDL
MODEL 3
REMARK VINA RESULT:      -5.3      3.222      7.555
REMARK  2 active torsions:
REMARK  status: ('A' for Active; 'I' for Inactive)
REMARK       I    between atoms: C_2  and  N_4 
REMARK    1  A    between atoms: C_7  and  N_10 
REMARK       I    between atoms: N_10  and  C_11 
REMARK       I    between atoms: C_11  and  N_13 
REMARK    2  A    between atoms: N_13  and  C_14 
ROOT
HETATM    1  N   UNL     1     -41.279 -48.478  11.563  1.00  0.00    -0.338 N 
HETATM    2  C   UNL     1     -40.887 -49.747  11.956  1.00  0.00     0.322 C 
HETATM    3  O   UNL     1     -39.793 -49.954  12.465  1.00  0.00    -0.247 OA
HETATM    4  N   UNL     1     -41.892 -50.660  11.751  1.00  0.00    -0.289 N 
HETATM    5  H   UNL     1     -41.896 -48.437  10.766  1.00  0.00     0.164 HD
HETATM    6  H   UNL     1     -42.829 -50.332  11.595  1.00  0.00     0.172 HD
ENDROOT
BRANCH   1   7
HETATM    7  C   UNL     1     -40.379 -47.349  11.797  1.00  0.00     0.089 C 
HETATM    8  C   UNL     1     -40.601 -46.735  13.179  1.00  0.00     0.045 C 
HETATM    9  C   UNL     1     -41.881 -45.914  13.256  1.00  0.00     0.127 C 
HETATM   10  N   UNL     1     -41.989 -44.955  12.159  1.00  0.00    -0.352 N 
HETATM   11  C   UNL     1     -42.676 -43.769  12.403  1.00  0.00     0.215 C 
HETATM   12  C   UNL     1     -41.783 -45.491  10.813  1.00  0.00     0.127 C 
HETATM   13  C   UNL     1     -42.807 -42.807  11.248  1.00  0.00     0.117 C 
HETATM   14  O   UNL     1     -43.138 -43.483  13.507  1.00  0.00    -0.274 OA
HETATM   15  C   UNL     1     -40.489 -46.282  10.705  1.00  0.00     0.045 C 
ENDBRANCH   1   7
BRANCH   4  16
HETATM   16  C   UNL     1     -41.755 -51.952  12.183  1.00  0.00     0.152 A 
HETATM   17  N   UNL     1     -40.921 -52.875  11.783  1.00  0.00    -0.346 N 
HETATM   18  C   UNL     1     -41.063 -53.995  12.572  1.00  0.00     0.097 A 
ATOM     19  HN  UNL     1     -40.268 -52.780  11.006  1.00  0.00     0.167 HD
HETATM   20  C   UNL     1     -42.033 -53.911  13.547  1.00  0.00     0.070 A 
HETATM   21  S   UNL     1     -42.819 -52.387  13.447  1.00  0.00    -0.064 SA
ENDBRANCH   4  16
TORSDOF 2
ENDMDL
MODEL 4
REMARK VINA RESULT:      -5.3      1.980      2.178
REMARK  2 active torsions:
REMARK  status: ('A' for Active; 'I' for Inactive)
REMARK       I    between atoms: C_2  and  N_4 
REMARK    1  A    between atoms: C_7  and  N_10 
REMARK       I    between atoms: N_10  and  C_11 
REMARK       I    between atoms: C_11  and  N_13 
REMARK    2  A    between atoms: N_13  and  C_14 
ROOT
HETATM    1  N   UNL     1     -40.646 -50.277  13.161  1.00  0.00    -0.338 N 
HETATM    2  C   UNL     1     -40.060 -49.279  12.399  1.00  0.00     0.322 C 
HETATM    3  O   UNL     1     -39.232 -49.533  11.534  1.00  0.00    -0.247 OA
HETATM    4  N   UNL     1     -40.579 -48.048  12.713  1.00  0.00    -0.289 N 
HETATM    5  H   UNL     1     -40.898 -50.017  14.103  1.00  0.00     0.164 HD
HETATM    6  H   UNL     1     -41.441 -47.995  13.228  1.00  0.00     0.172 HD
ENDROOT
BRANCH   1   7
HETATM    7  C   UNL     1     -40.296 -51.672  12.900  1.00  0.00     0.089 C 
HETATM    8  C   UNL     1     -41.122 -52.251  11.752  1.00  0.00     0.045 C 
HETATM    9  C   UNL     1     -42.562 -52.538  12.156  1.00  0.00     0.127 C 
HETATM   10  N   UNL     1     -42.645 -53.312  13.392  1.00  0.00    -0.352 N 
HETATM   11  C   UNL     1     -43.731 -54.170  13.546  1.00  0.00     0.215 C 
HETATM   12  C   UNL     1     -41.870 -52.803  14.524  1.00  0.00     0.127 C 
HETATM   13  C   UNL     1     -43.818 -54.934  14.844  1.00  0.00     0.117 C 
HETATM   14  O   UNL     1     -44.576 -54.337  12.667  1.00  0.00    -0.274 OA
HETATM   15  C   UNL     1     -40.418 -52.545  14.152  1.00  0.00     0.045 C 
ENDBRANCH   1   7
BRANCH   4  16
HETATM   16  C   UNL     1     -40.224 -46.940  11.991  1.00  0.00     0.152 A 
HETATM   17  N   UNL     1     -40.115 -46.794  10.697  1.00  0.00    -0.346 N 
HETATM   18  C   UNL     1     -39.839 -45.476  10.404  1.00  0.00     0.097 A 
ATOM     19  HN  UNL     1     -40.218 -47.541  10.011  1.00  0.00     0.167 HD
HETATM   20  C   UNL     1     -39.711 -44.644  11.496  1.00  0.00     0.070 A 
HETATM   21  S   UNL     1     -39.911 -45.553  12.939  1.00  0.00    -0.064 SA
ENDBRANCH   4  16
TORSDOF 2
ENDMDL
MODEL 5
REMARK VINA RESULT:      -5.1     18.535     19.959
REMARK  2 active torsions:
REMARK  status: ('A' for Active; 'I' for Inactive)
REMARK       I    between atoms: C_2  and  N_4 
REMARK    1  A    between atoms: C_7  and  N_10 
REMARK       I    between atoms: N_10  and  C_11 
REMARK       I    between atoms: C_11  and  N_13 
REMARK    2  A    between atoms: N_13  and  C_14 
ROOT
HETATM    1  N   UNL     1     -27.874 -61.902  17.518  1.00  0.00    -0.338 N 
HETATM    2  C   UNL     1     -28.775 -61.004  18.068  1.00  0.00     0.322 C 
HETATM    3  O   UNL     1     -29.968 -61.263  18.155  1.00  0.00    -0.247 OA
HETATM    4  N   UNL     1     -28.134 -59.880  18.527  1.00  0.00    -0.289 N 
HETATM    5  H   UNL     1     -27.084 -61.493  17.042  1.00  0.00     0.164 HD
HETATM    6  H   UNL     1     -27.138 -59.901  18.657  1.00  0.00     0.172 HD
ENDROOT
BRANCH   1   7
HETATM    7  C   UNL     1     -28.353 -63.207  17.066  1.00  0.00     0.089 C 
HETATM    8  C   UNL     1     -27.641 -64.347  17.794  1.00  0.00     0.045 C 
HETATM    9  C   UNL     1     -26.211 -64.546  17.311  1.00  0.00     0.127 C 
HETATM   10  N   UNL     1     -26.126 -64.630  15.855  1.00  0.00    -0.352 N 
HETATM   11  C   UNL     1     -25.109 -65.410  15.311  1.00  0.00     0.215 C 
HETATM   12  C   UNL     1     -26.793 -63.563  15.108  1.00  0.00     0.127 C 
HETATM   13  C   UNL     1     -25.016 -65.457  13.806  1.00  0.00     0.117 C 
HETATM   14  O   UNL     1     -24.329 -66.064  16.004  1.00  0.00    -0.274 OA
HETATM   15  C   UNL     1     -28.236 -63.375  15.549  1.00  0.00     0.045 C 
ENDBRANCH   1   7
BRANCH   4  16
HETATM   16  C   UNL     1     -28.826 -58.919  19.215  1.00  0.00     0.152 A 
HETATM   17  N   UNL     1     -30.116 -58.739  19.314  1.00  0.00    -0.346 N 
HETATM   18  C   UNL     1     -30.371 -57.715  20.200  1.00  0.00     0.097 A 
ATOM     19  HN  UNL     1     -30.825 -59.273  18.812  1.00  0.00     0.167 HD
HETATM   20  C   UNL     1     -29.256 -57.111  20.739  1.00  0.00     0.070 A 
HETATM   21  S   UNL     1     -27.839 -57.829  20.085  1.00  0.00    -0.064 SA
ENDBRANCH   4  16
TORSDOF 2
ENDMDL
MODEL 6
REMARK VINA RESULT:      -5.0      2.645      7.556
REMARK  2 active torsions:
REMARK  status: ('A' for Active; 'I' for Inactive)
REMARK       I    between atoms: C_2  and  N_4 
REMARK    1  A    between atoms: C_7  and  N_10 
REMARK       I    between atoms: N_10  and  C_11 
REMARK       I    between atoms: C_11  and  N_13 
REMARK    2  A    between atoms: N_13  and  C_14 
ROOT
HETATM    1  N   UNL     1     -42.187 -49.679  12.609  1.00  0.00    -0.338 N 
HETATM    2  C   UNL     1     -42.609 -50.793  13.314  1.00  0.00     0.322 C 
HETATM    3  O   UNL     1     -42.522 -50.853  14.534  1.00  0.00    -0.247 OA
HETATM    4  N   UNL     1     -43.164 -51.728  12.476  1.00  0.00    -0.289 N 
HETATM    5  H   UNL     1     -41.831 -49.856  11.681  1.00  0.00     0.164 HD
HETATM    6  H   UNL     1     -43.435 -51.455  11.547  1.00  0.00     0.172 HD
ENDROOT
BRANCH   1   7
HETATM    7  C   UNL     1     -41.659 -48.528  13.340  1.00  0.00     0.089 C 
HETATM    8  C   UNL     1     -42.606 -47.331  13.258  1.00  0.00     0.045 C 
HETATM    9  C   UNL     1     -42.578 -46.656  11.894  1.00  0.00     0.127 C 
HETATM   10  N   UNL     1     -41.216 -46.365  11.450  1.00  0.00    -0.352 N 
HETATM   11  C   UNL     1     -41.028 -45.255  10.632  1.00  0.00     0.215 C 
HETATM   12  C   UNL     1     -40.267 -47.477  11.510  1.00  0.00     0.127 C 
HETATM   13  C   UNL     1     -39.621 -44.990  10.155  1.00  0.00     0.117 C 
HETATM   14  O   UNL     1     -41.943 -44.493  10.321  1.00  0.00    -0.274 OA
HETATM   15  C   UNL     1     -40.252 -48.141  12.878  1.00  0.00     0.045 C 
ENDBRANCH   1   7
BRANCH   4  16
HETATM   16  C   UNL     1     -43.754 -52.854  12.985  1.00  0.00     0.152 A 
HETATM   17  N   UNL     1     -43.213 -53.853  13.630  1.00  0.00    -0.346 N 
HETATM   18  C   UNL     1     -44.201 -54.716  14.054  1.00  0.00     0.097 A 
ATOM     19  HN  UNL     1     -42.214 -53.975  13.795  1.00  0.00     0.167 HD
HETATM   20  C   UNL     1     -45.484 -54.367  13.691  1.00  0.00     0.070 A 
HETATM   21  S   UNL     1     -45.446 -52.926  12.757  1.00  0.00    -0.064 SA
ENDBRANCH   4  16
TORSDOF 2
ENDMDL
MODEL 7
REMARK VINA RESULT:      -5.0      3.026      3.440
REMARK  2 active torsions:
REMARK  status: ('A' for Active; 'I' for Inactive)
REMARK       I    between atoms: C_2  and  N_4 
REMARK    1  A    between atoms: C_7  and  N_10 
REMARK       I    between atoms: N_10  and  C_11 
REMARK       I    between atoms: C_11  and  N_13 
REMARK    2  A    between atoms: N_13  and  C_14 
ROOT
HETATM    1  N   UNL     1     -40.705 -52.385  13.627  1.00  0.00    -0.338 N 
HETATM    2  C   UNL     1     -40.847 -51.545  12.535  1.00  0.00     0.322 C 
HETATM    3  O   UNL     1     -40.994 -51.983  11.401  1.00  0.00    -0.247 OA
HETATM    4  N   UNL     1     -40.859 -50.227  12.923  1.00  0.00    -0.289 N 
HETATM    5  H   UNL     1     -40.129 -52.033  14.378  1.00  0.00     0.164 HD
HETATM    6  H   UNL     1     -41.014 -50.002  13.889  1.00  0.00     0.172 HD
ENDROOT
BRANCH   1   7
HETATM    7  C   UNL     1     -40.771 -53.832  13.428  1.00  0.00     0.089 C 
HETATM    8  C   UNL     1     -42.175 -54.370  13.703  1.00  0.00     0.045 C 
HETATM    9  C   UNL     1     -42.502 -54.417  15.189  1.00  0.00     0.127 C 
HETATM   10  N   UNL     1     -41.453 -55.075  15.965  1.00  0.00    -0.352 N 
HETATM   11  C   UNL     1     -41.833 -55.754  17.119  1.00  0.00     0.215 C 
HETATM   12  C   UNL     1     -40.088 -54.598  15.738  1.00  0.00     0.127 C 
HETATM   13  C   UNL     1     -40.733 -56.398  17.926  1.00  0.00     0.117 C 
HETATM   14  O   UNL     1     -43.008 -55.864  17.471  1.00  0.00    -0.274 OA
HETATM   15  C   UNL     1     -39.728 -54.581  14.260  1.00  0.00     0.045 C 
ENDBRANCH   1   7
BRANCH   4  16
HETATM   16  C   UNL     1     -41.111 -49.238  12.010  1.00  0.00     0.152 A 
HETATM   17  N   UNL     1     -42.050 -49.166  11.105  1.00  0.00    -0.346 N 
HETATM   18  C   UNL     1     -41.994 -47.938  10.481  1.00  0.00     0.097 A 
ATOM     19  HN  UNL     1     -42.721 -49.904  10.893  1.00  0.00     0.167 HD
HETATM   20  C   UNL     1     -40.982 -47.105  10.908  1.00  0.00     0.070 A 
HETATM   21  S   UNL     1     -40.049 -47.903  12.110  1.00  0.00    -0.064 SA
ENDBRANCH   4  16
TORSDOF 2
ENDMDL
MODEL 8
REMARK VINA RESULT:      -5.0      3.383      8.409
REMARK  2 active torsions:
REMARK  status: ('A' for Active; 'I' for Inactive)
REMARK       I    between atoms: C_2  and  N_4 
REMARK    1  A    between atoms: C_7  and  N_10 
REMARK       I    between atoms: N_10  and  C_11 
REMARK       I    between atoms: C_11  and  N_13 
REMARK    2  A    between atoms: N_13  and  C_14 
ROOT
HETATM    1  N   UNL     1     -41.748 -46.918  11.741  1.00  0.00    -0.338 N 
HETATM    2  C   UNL     1     -41.730 -48.244  11.339  1.00  0.00     0.322 C 
HETATM    3  O   UNL     1     -41.508 -48.560  10.177  1.00  0.00    -0.247 OA
HETATM    4  N   UNL     1     -41.925 -49.086  12.405  1.00  0.00    -0.289 N 
HETATM    5  H   UNL     1     -42.376 -46.699  12.500  1.00  0.00     0.164 HD
HETATM    6  H   UNL     1     -41.814 -48.731  13.338  1.00  0.00     0.172 HD
ENDROOT
BRANCH   1   7
HETATM    7  C   UNL     1     -41.456 -45.871  10.763  1.00  0.00     0.089 C 
HETATM    8  C   UNL     1     -39.995 -45.429  10.836  1.00  0.00     0.045 C 
HETATM    9  C   UNL     1     -39.706 -44.567  12.057  1.00  0.00     0.127 C 
HETATM   10  N   UNL     1     -40.663 -43.471  12.199  1.00  0.00    -0.352 N 
HETATM   11  C   UNL     1     -40.215 -42.296  12.795  1.00  0.00     0.215 C 
HETATM   12  C   UNL     1     -42.078 -43.840  12.134  1.00  0.00     0.127 C 
HETATM   13  C   UNL     1     -41.227 -41.189  12.965  1.00  0.00     0.117 C 
HETATM   14  O   UNL     1     -39.048 -42.131  13.149  1.00  0.00    -0.274 OA
HETATM   15  C   UNL     1     -42.395 -44.670  10.900  1.00  0.00     0.045 C 
ENDBRANCH   1   7
BRANCH   4  16
HETATM   16  C   UNL     1     -41.823 -50.443  12.245  1.00  0.00     0.152 A 
HETATM   17  N   UNL     1     -41.005 -51.128  11.491  1.00  0.00    -0.346 N 
HETATM   18  C   UNL     1     -41.183 -52.475  11.727  1.00  0.00     0.097 A 
ATOM     19  HN  UNL     1     -40.339 -50.729  10.831  1.00  0.00     0.167 HD
HETATM   20  C   UNL     1     -42.164 -52.789  12.642  1.00  0.00     0.070 A 
HETATM   21  S   UNL     1     -42.913 -51.347  13.200  1.00  0.00    -0.064 SA
ENDBRANCH   4  16
TORSDOF 2
ENDMDL
MODEL 9
REMARK VINA RESULT:      -4.8      5.916      8.980
REMARK  2 active torsions:
REMARK  status: ('A' for Active; 'I' for Inactive)
REMARK       I    between atoms: C_2  and  N_4 
REMARK    1  A    between atoms: C_7  and  N_10 
REMARK       I    between atoms: N_10  and  C_11 
REMARK       I    between atoms: C_11  and  N_13 
REMARK    2  A    between atoms: N_13  and  C_14 
ROOT
HETATM    1  N   UNL     1     -47.087 -51.943  17.336  1.00  0.00    -0.338 N 
HETATM    2  C   UNL     1     -47.875 -51.274  18.257  1.00  0.00     0.322 C 
HETATM    3  O   UNL     1     -48.059 -50.065  18.189  1.00  0.00    -0.247 OA
HETATM    4  N   UNL     1     -48.430 -52.148  19.160  1.00  0.00    -0.289 N 
HETATM    5  H   UNL     1     -46.592 -52.750  17.686  1.00  0.00     0.164 HD
HETATM    6  H   UNL     1     -48.437 -53.130  18.951  1.00  0.00     0.172 HD
ENDROOT
BRANCH   1   7
HETATM    7  C   UNL     1     -46.490 -51.195  16.230  1.00  0.00     0.089 C 
HETATM    8  C   UNL     1     -47.078 -51.620  14.885  1.00  0.00     0.045 C 
HETATM    9  C   UNL     1     -46.568 -52.979  14.428  1.00  0.00     0.127 C 
HETATM   10  N   UNL     1     -45.111 -53.072  14.492  1.00  0.00    -0.352 N 
HETATM   11  C   UNL     1     -44.475 -53.900  13.571  1.00  0.00     0.215 C 
HETATM   12  C   UNL     1     -44.495 -52.674  15.759  1.00  0.00     0.127 C 
HETATM   13  C   UNL     1     -42.974 -54.011  13.675  1.00  0.00     0.117 C 
HETATM   14  O   UNL     1     -45.083 -54.501  12.685  1.00  0.00    -0.274 OA
HETATM   15  C   UNL     1     -44.963 -51.301  16.214  1.00  0.00     0.045 C 
ENDBRANCH   1   7
BRANCH   4  16
HETATM   16  C   UNL     1     -49.340 -51.707  20.083  1.00  0.00     0.152 A 
HETATM   17  N   UNL     1     -49.330 -50.614  20.798  1.00  0.00    -0.346 N 
HETATM   18  C   UNL     1     -50.503 -50.524  21.517  1.00  0.00     0.097 A 
ATOM     19  HN  UNL     1     -48.572 -49.932  20.822  1.00  0.00     0.167 HD
HETATM   20  C   UNL     1     -51.376 -51.578  21.354  1.00  0.00     0.070 A 
HETATM   21  S   UNL     1     -50.687 -52.738  20.291  1.00  0.00    -0.064 SA
ENDBRANCH   4  16
TORSDOF 2
ENDMDL
