MODEL 1
REMARK VINA RESULT:      -6.8      0.000      0.000
REMARK  4 active torsions:
REMARK  status: ('A' for Active; 'I' for Inactive)
REMARK    1  A    between atoms: C_2  and  C_4 
REMARK    2  A    between atoms: C_2  and  C_20 
REMARK    3  A    between atoms: C_4  and  N_5 
REMARK       I    between atoms: N_5  and  C_6 
REMARK       I    between atoms: C_6  and  N_8 
REMARK       I    between atoms: N_12  and  C_15 
REMARK    4  A    between atoms: C_15  and  C_17 
ROOT
HETATM    1  N   UNL     1     -43.722 -50.764  12.907  1.00  0.00    -0.342 N 
HETATM    2  C   UNL     1     -42.513 -50.284  13.338  1.00  0.00     0.318 C 
HETATM    3  O   UNL     1     -41.773 -50.945  14.060  1.00  0.00    -0.247 OA
HETATM    4  N   UNL     1     -42.203 -48.999  12.908  1.00  0.00    -0.333 N 
HETATM    5  C   UNL     1     -40.977 -48.398  13.435  1.00  0.00     0.129 C 
HETATM    6  C   UNL     1     -39.794 -48.620  12.495  1.00  0.00     0.040 C 
HETATM    7  C   UNL     1     -39.655 -47.499  11.466  1.00  0.00     0.127 C 
HETATM    8  N   UNL     1     -40.901 -47.078  10.823  1.00  0.00    -0.350 N 
HETATM    9  C   UNL     1     -41.924 -48.101  10.570  1.00  0.00     0.145 C 
HETATM   10  C   UNL     1     -42.854 -48.304  11.781  1.00  0.00     0.147 C 
HETATM   11  C   UNL     1     -41.218 -45.758  10.492  1.00  0.00     0.224 C 
HETATM   12  O   UNL     1     -42.316 -45.447  10.037  1.00  0.00    -0.273 OA
HETATM   13  H   UNL     1     -44.441 -50.053  12.882  1.00  0.00     0.164 HD
ENDROOT
BRANCH   1  14
HETATM   14  C   UNL     1     -44.173 -52.069  13.373  1.00  0.00     0.138 C 
BRANCH  14  15
HETATM   15  C   UNL     1     -45.697 -52.132  13.682  1.00  0.00    -0.004 C 
HETATM   16  C   UNL     1     -46.453 -51.469  12.506  1.00  0.00     0.021 C 
HETATM   17  C   UNL     1     -46.122 -53.619  13.706  1.00  0.00     0.021 C 
BRANCH  15  18
HETATM   18  C   UNL     1     -46.005 -51.486  15.046  1.00  0.00    -0.046 A 
HETATM   19  C   UNL     1     -45.030 -50.825  15.807  1.00  0.00     0.025 A 
HETATM   20  C   UNL     1     -45.362 -50.319  17.057  1.00  0.00     0.088 A 
HETATM   21  N   UNL     1     -46.588 -50.415  17.605  1.00  0.00    -0.375 N 
HETATM   22  C   UNL     1     -47.528 -51.032  16.864  1.00  0.00     0.088 A 
ATOM     23  HN  UNL     1     -46.794 -50.041  18.532  1.00  0.00     0.164 HD
HETATM   24  C   UNL     1     -47.291 -51.567  15.604  1.00  0.00     0.025 A 
ENDBRANCH  15  18
ENDBRANCH  14  15
ENDBRANCH   1  14
BRANCH  11  25
HETATM   25  C   UNL     1     -40.204 -44.686  10.735  1.00  0.00     0.078 A 
HETATM   26  C   UNL     1     -40.070 -44.116  12.131  1.00  0.00     0.015 A 
HETATM   27  C   UNL     1     -40.633 -43.266  11.032  1.00  0.00     0.015 A 
ENDBRANCH  11  25
TORSDOF 4
ENDMDL
MODEL 2
REMARK VINA RESULT:      -6.4      3.532      7.692
REMARK  4 active torsions:
REMARK  status: ('A' for Active; 'I' for Inactive)
REMARK    1  A    between atoms: C_2  and  C_4 
REMARK    2  A    between atoms: C_2  and  C_20 
REMARK    3  A    between atoms: C_4  and  N_5 
REMARK       I    between atoms: N_5  and  C_6 
REMARK       I    between atoms: C_6  and  N_8 
REMARK       I    between atoms: N_12  and  C_15 
REMARK    4  A    between atoms: C_15  and  C_17 
ROOT
HETATM    1  N   UNL     1     -42.488 -48.802  13.034  1.00  0.00    -0.342 N 
HETATM    2  C   UNL     1     -43.051 -50.049  13.126  1.00  0.00     0.318 C 
HETATM    3  O   UNL     1     -44.169 -50.290  12.683  1.00  0.00    -0.247 OA
HETATM    4  N   UNL     1     -42.268 -51.001  13.767  1.00  0.00    -0.333 N 
HETATM    5  C   UNL     1     -42.870 -52.316  13.994  1.00  0.00     0.129 C 
HETATM    6  C   UNL     1     -42.523 -53.294  12.873  1.00  0.00     0.040 C 
HETATM    7  C   UNL     1     -41.235 -54.065  13.157  1.00  0.00     0.127 C 
HETATM    8  N   UNL     1     -40.120 -53.261  13.663  1.00  0.00    -0.350 N 
HETATM    9  C   UNL     1     -39.985 -51.885  13.169  1.00  0.00     0.145 C 
HETATM   10  C   UNL     1     -40.816 -50.887  13.998  1.00  0.00     0.147 C 
HETATM   11  C   UNL     1     -39.210 -53.687  14.634  1.00  0.00     0.224 C 
HETATM   12  O   UNL     1     -38.348 -52.939  15.090  1.00  0.00    -0.273 OA
HETATM   13  H   UNL     1     -41.957 -48.549  13.857  1.00  0.00     0.164 HD
ENDROOT
BRANCH   1  14
HETATM   14  C   UNL     1     -43.266 -47.716  12.453  1.00  0.00     0.138 C 
BRANCH  14  15
HETATM   15  C   UNL     1     -42.652 -47.137  11.144  1.00  0.00    -0.004 C 
HETATM   16  C   UNL     1     -42.424 -45.621  11.350  1.00  0.00     0.021 C 
HETATM   17  C   UNL     1     -41.259 -47.777  10.942  1.00  0.00     0.021 C 
BRANCH  15  18
HETATM   18  C   UNL     1     -43.549 -47.459   9.932  1.00  0.00    -0.046 A 
HETATM   19  C   UNL     1     -44.947 -47.522  10.022  1.00  0.00     0.025 A 
HETATM   20  C   UNL     1     -45.689 -47.878   8.904  1.00  0.00     0.088 A 
HETATM   21  N   UNL     1     -45.151 -48.171   7.705  1.00  0.00    -0.375 N 
HETATM   22  C   UNL     1     -43.809 -48.090   7.617  1.00  0.00     0.088 A 
ATOM     23  HN  UNL     1     -45.727 -48.440   6.908  1.00  0.00     0.164 HD
HETATM   24  C   UNL     1     -42.984 -47.740   8.678  1.00  0.00     0.025 A 
ENDBRANCH  15  18
ENDBRANCH  14  15
ENDBRANCH   1  14
BRANCH  11  25
HETATM   25  C   UNL     1     -39.314 -55.081  15.165  1.00  0.00     0.078 A 
HETATM   26  C   UNL     1     -39.888 -55.291  16.550  1.00  0.00     0.015 A 
HETATM   27  C   UNL     1     -38.431 -55.546  16.302  1.00  0.00     0.015 A 
ENDBRANCH  11  25
TORSDOF 4
ENDMDL
MODEL 3
REMARK VINA RESULT:      -6.3      2.912      4.135
REMARK  4 active torsions:
REMARK  status: ('A' for Active; 'I' for Inactive)
REMARK    1  A    between atoms: C_2  and  C_4 
REMARK    2  A    between atoms: C_2  and  C_20 
REMARK    3  A    between atoms: C_4  and  N_5 
REMARK       I    between atoms: N_5  and  C_6 
REMARK       I    between atoms: C_6  and  N_8 
REMARK       I    between atoms: N_12  and  C_15 
REMARK    4  A    between atoms: C_15  and  C_17 
ROOT
HETATM    1  N   UNL     1     -42.919 -51.381  14.314  1.00  0.00    -0.342 N 
HETATM    2  C   UNL     1     -41.757 -50.728  14.633  1.00  0.00     0.318 C 
HETATM    3  O   UNL     1     -40.982 -51.159  15.481  1.00  0.00    -0.247 OA
HETATM    4  N   UNL     1     -41.538 -49.545  13.937  1.00  0.00    -0.333 N 
HETATM    5  C   UNL     1     -40.370 -48.751  14.324  1.00  0.00     0.129 C 
HETATM    6  C   UNL     1     -39.157 -49.076  13.455  1.00  0.00     0.040 C 
HETATM    7  C   UNL     1     -39.086 -48.194  12.210  1.00  0.00     0.127 C 
HETATM    8  N   UNL     1     -40.349 -48.018  11.491  1.00  0.00    -0.350 N 
HETATM    9  C   UNL     1     -41.286 -49.148  11.462  1.00  0.00     0.145 C 
HETATM   10  C   UNL     1     -42.219 -49.160  12.687  1.00  0.00     0.147 C 
HETATM   11  C   UNL     1     -40.759 -46.829  10.883  1.00  0.00     0.224 C 
HETATM   12  O   UNL     1     -41.869 -46.708  10.372  1.00  0.00    -0.273 OA
HETATM   13  H   UNL     1     -43.688 -50.751  14.136  1.00  0.00     0.164 HD
ENDROOT
BRANCH   1  14
HETATM   14  C   UNL     1     -43.277 -52.588  15.048  1.00  0.00     0.138 C 
BRANCH  14  15
HETATM   15  C   UNL     1     -42.970 -53.905  14.277  1.00  0.00    -0.004 C 
HETATM   16  C   UNL     1     -44.030 -54.957  14.684  1.00  0.00     0.021 C 
HETATM   17  C   UNL     1     -43.164 -53.635  12.767  1.00  0.00     0.021 C 
BRANCH  15  18
HETATM   18  C   UNL     1     -41.523 -54.366  14.537  1.00  0.00    -0.046 A 
HETATM   19  C   UNL     1     -41.126 -54.967  15.741  1.00  0.00     0.025 A 
HETATM   20  C   UNL     1     -39.792 -55.301  15.932  1.00  0.00     0.088 A 
HETATM   21  N   UNL     1     -38.825 -55.089  15.019  1.00  0.00    -0.375 N 
HETATM   22  C   UNL     1     -39.213 -54.531  13.857  1.00  0.00     0.088 A 
ATOM     23  HN  UNL     1     -37.852 -55.338  15.198  1.00  0.00     0.164 HD
HETATM   24  C   UNL     1     -40.522 -54.165  13.573  1.00  0.00     0.025 A 
ENDBRANCH  15  18
ENDBRANCH  14  15
ENDBRANCH   1  14
BRANCH  11  25
HETATM   25  C   UNL     1     -39.834 -45.653  10.892  1.00  0.00     0.078 A 
HETATM   26  C   UNL     1     -39.919 -44.670  12.040  1.00  0.00     0.015 A 
HETATM   27  C   UNL     1     -40.359 -44.252  10.668  1.00  0.00     0.015 A 
ENDBRANCH  11  25
TORSDOF 4
ENDMDL
MODEL 4
REMARK VINA RESULT:      -6.3      1.696      2.199
REMARK  4 active torsions:
REMARK  status: ('A' for Active; 'I' for Inactive)
REMARK    1  A    between atoms: C_2  and  C_4 
REMARK    2  A    between atoms: C_2  and  C_20 
REMARK    3  A    between atoms: C_4  and  N_5 
REMARK       I    between atoms: N_5  and  C_6 
REMARK       I    between atoms: C_6  and  N_8 
REMARK       I    between atoms: N_12  and  C_15 
REMARK    4  A    between atoms: C_15  and  C_17 
ROOT
HETATM    1  N   UNL     1     -43.675 -52.054  12.726  1.00  0.00    -0.342 N 
HETATM    2  C   UNL     1     -42.337 -51.815  12.551  1.00  0.00     0.318 C 
HETATM    3  O   UNL     1     -41.554 -52.707  12.239  1.00  0.00    -0.247 OA
HETATM    4  N   UNL     1     -41.942 -50.500  12.766  1.00  0.00    -0.333 N 
HETATM    5  C   UNL     1     -40.506 -50.217  12.706  1.00  0.00     0.129 C 
HETATM    6  C   UNL     1     -40.085 -49.747  11.315  1.00  0.00     0.040 C 
HETATM    7  C   UNL     1     -40.180 -48.229  11.165  1.00  0.00     0.127 C 
HETATM    8  N   UNL     1     -41.402 -47.621  11.694  1.00  0.00    -0.350 N 
HETATM    9  C   UNL     1     -42.651 -48.386  11.592  1.00  0.00     0.145 C 
HETATM   10  C   UNL     1     -42.848 -49.337  12.788  1.00  0.00     0.147 C 
HETATM   11  C   UNL     1     -41.456 -46.389  12.350  1.00  0.00     0.224 C 
HETATM   12  O   UNL     1     -42.493 -45.966  12.856  1.00  0.00    -0.273 OA
HETATM   13  H   UNL     1     -44.072 -51.527  13.491  1.00  0.00     0.164 HD
ENDROOT
BRANCH   1  14
HETATM   14  C   UNL     1     -44.172 -53.418  12.603  1.00  0.00     0.138 C 
BRANCH  14  15
HETATM   15  C   UNL     1     -44.590 -54.057  13.959  1.00  0.00    -0.004 C 
HETATM   16  C   UNL     1     -45.496 -55.276  13.657  1.00  0.00     0.021 C 
HETATM   17  C   UNL     1     -43.318 -54.605  14.646  1.00  0.00     0.021 C 
BRANCH  15  18
HETATM   18  C   UNL     1     -45.260 -53.012  14.872  1.00  0.00    -0.046 A 
HETATM   19  C   UNL     1     -46.524 -52.469  14.599  1.00  0.00     0.025 A 
HETATM   20  C   UNL     1     -47.040 -51.484  15.431  1.00  0.00     0.088 A 
HETATM   21  N   UNL     1     -46.401 -51.003  16.514  1.00  0.00    -0.375 N 
HETATM   22  C   UNL     1     -45.197 -51.541  16.785  1.00  0.00     0.088 A 
ATOM     23  HN  UNL     1     -46.807 -50.271  17.097  1.00  0.00     0.164 HD
HETATM   24  C   UNL     1     -44.600 -52.530  16.014  1.00  0.00     0.025 A 
ENDBRANCH  15  18
ENDBRANCH  14  15
ENDBRANCH   1  14
BRANCH  11  25
HETATM   25  C   UNL     1     -40.206 -45.578  12.477  1.00  0.00     0.078 A 
HETATM   26  C   UNL     1     -39.382 -45.704  13.741  1.00  0.00     0.015 A 
HETATM   27  C   UNL     1     -40.121 -44.431  13.459  1.00  0.00     0.015 A 
ENDBRANCH  11  25
TORSDOF 4
ENDMDL
MODEL 5
REMARK VINA RESULT:      -6.3      2.155      2.911
REMARK  4 active torsions:
REMARK  status: ('A' for Active; 'I' for Inactive)
REMARK    1  A    between atoms: C_2  and  C_4 
REMARK    2  A    between atoms: C_2  and  C_20 
REMARK    3  A    between atoms: C_4  and  N_5 
REMARK       I    between atoms: N_5  and  C_6 
REMARK       I    between atoms: C_6  and  N_8 
REMARK       I    between atoms: N_12  and  C_15 
REMARK    4  A    between atoms: C_15  and  C_17 
ROOT
HETATM    1  N   UNL     1     -41.966 -51.610  14.657  1.00  0.00    -0.342 N 
HETATM    2  C   UNL     1     -40.734 -51.011  14.629  1.00  0.00     0.318 C 
HETATM    3  O   UNL     1     -39.747 -51.534  15.137  1.00  0.00    -0.247 OA
HETATM    4  N   UNL     1     -40.696 -49.772  14.001  1.00  0.00    -0.333 N 
HETATM    5  C   UNL     1     -39.429 -49.040  14.047  1.00  0.00     0.129 C 
HETATM    6  C   UNL     1     -38.582 -49.305  12.804  1.00  0.00     0.040 C 
HETATM    7  C   UNL     1     -38.877 -48.311  11.681  1.00  0.00     0.127 C 
HETATM    8  N   UNL     1     -40.295 -48.046  11.433  1.00  0.00    -0.350 N 
HETATM    9  C   UNL     1     -41.244 -49.151  11.621  1.00  0.00     0.145 C 
HETATM   10  C   UNL     1     -41.728 -49.259  13.080  1.00  0.00     0.147 C 
HETATM   11  C   UNL     1     -40.822 -46.797  11.095  1.00  0.00     0.224 C 
HETATM   12  O   UNL     1     -42.032 -46.608  10.987  1.00  0.00    -0.273 OA
HETATM   13  H   UNL     1     -42.721 -50.951  14.794  1.00  0.00     0.164 HD
ENDROOT
BRANCH   1  14
HETATM   14  C   UNL     1     -42.124 -52.873  15.366  1.00  0.00     0.138 C 
BRANCH  14  15
HETATM   15  C   UNL     1     -42.718 -54.014  14.489  1.00  0.00    -0.004 C 
HETATM   16  C   UNL     1     -41.746 -54.271  13.312  1.00  0.00     0.021 C 
HETATM   17  C   UNL     1     -42.746 -55.307  15.336  1.00  0.00     0.021 C 
BRANCH  15  18
HETATM   18  C   UNL     1     -44.148 -53.664  14.034  1.00  0.00    -0.046 A 
HETATM   19  C   UNL     1     -44.434 -53.173  12.751  1.00  0.00     0.025 A 
HETATM   20  C   UNL     1     -45.737 -52.819  12.428  1.00  0.00     0.088 A 
HETATM   21  N   UNL     1     -46.777 -52.920  13.278  1.00  0.00    -0.375 N 
HETATM   22  C   UNL     1     -46.502 -53.411  14.502  1.00  0.00     0.088 A 
ATOM     23  HN  UNL     1     -47.720 -52.640  13.010  1.00  0.00     0.164 HD
HETATM   24  C   UNL     1     -45.233 -53.793  14.916  1.00  0.00     0.025 A 
ENDBRANCH  15  18
ENDBRANCH  14  15
ENDBRANCH   1  14
BRANCH  11  25
HETATM   25  C   UNL     1     -39.890 -45.645  10.896  1.00  0.00     0.078 A 
HETATM   26  C   UNL     1     -39.602 -44.732  12.068  1.00  0.00     0.015 A 
HETATM   27  C   UNL     1     -40.401 -44.221  10.907  1.00  0.00     0.015 A 
ENDBRANCH  11  25
TORSDOF 4
ENDMDL
MODEL 6
REMARK VINA RESULT:      -6.1      3.479      4.796
REMARK  4 active torsions:
REMARK  status: ('A' for Active; 'I' for Inactive)
REMARK    1  A    between atoms: C_2  and  C_4 
REMARK    2  A    between atoms: C_2  and  C_20 
REMARK    3  A    between atoms: C_4  and  N_5 
REMARK       I    between atoms: N_5  and  C_6 
REMARK       I    between atoms: C_6  and  N_8 
REMARK       I    between atoms: N_12  and  C_15 
REMARK    4  A    between atoms: C_15  and  C_17 
ROOT
HETATM    1  N   UNL     1     -44.269 -50.693  16.208  1.00  0.00    -0.342 N 
HETATM    2  C   UNL     1     -43.443 -49.608  16.075  1.00  0.00     0.318 C 
HETATM    3  O   UNL     1     -43.662 -48.550  16.658  1.00  0.00    -0.247 OA
HETATM    4  N   UNL     1     -42.359 -49.794  15.225  1.00  0.00    -0.333 N 
HETATM    5  C   UNL     1     -41.513 -48.629  14.960  1.00  0.00     0.129 C 
HETATM    6  C   UNL     1     -40.315 -48.578  15.906  1.00  0.00     0.040 C 
HETATM    7  C   UNL     1     -39.105 -49.325  15.348  1.00  0.00     0.127 C 
HETATM    8  N   UNL     1     -39.391 -50.637  14.762  1.00  0.00    -0.350 N 
HETATM    9  C   UNL     1     -40.458 -51.442  15.370  1.00  0.00     0.145 C 
HETATM   10  C   UNL     1     -41.844 -51.104  14.787  1.00  0.00     0.147 C 
HETATM   11  C   UNL     1     -38.767 -51.152  13.624  1.00  0.00     0.224 C 
HETATM   12  O   UNL     1     -39.110 -52.219  13.120  1.00  0.00    -0.273 OA
HETATM   13  H   UNL     1     -44.387 -51.205  15.344  1.00  0.00     0.164 HD
ENDROOT
BRANCH   1  14
HETATM   14  C   UNL     1     -45.478 -50.569  17.012  1.00  0.00     0.138 C 
BRANCH  14  15
HETATM   15  C   UNL     1     -46.546 -51.661  16.711  1.00  0.00    -0.004 C 
HETATM   16  C   UNL     1     -46.413 -52.770  17.783  1.00  0.00     0.021 C 
HETATM   17  C   UNL     1     -47.945 -51.029  16.892  1.00  0.00     0.021 C 
BRANCH  15  18
HETATM   18  C   UNL     1     -46.398 -52.187  15.271  1.00  0.00    -0.046 A 
HETATM   19  C   UNL     1     -45.885 -53.459  14.978  1.00  0.00     0.025 A 
HETATM   20  C   UNL     1     -45.722 -53.844  13.654  1.00  0.00     0.088 A 
HETATM   21  N   UNL     1     -46.033 -53.066  12.600  1.00  0.00    -0.375 N 
HETATM   22  C   UNL     1     -46.545 -51.853  12.884  1.00  0.00     0.088 A 
ATOM     23  HN  UNL     1     -45.889 -53.378  11.640  1.00  0.00     0.164 HD
HETATM   24  C   UNL     1     -46.747 -51.381  14.174  1.00  0.00     0.025 A 
ENDBRANCH  15  18
ENDBRANCH  14  15
ENDBRANCH   1  14
BRANCH  11  25
HETATM   25  C   UNL     1     -37.677 -50.362  12.974  1.00  0.00     0.078 A 
HETATM   26  C   UNL     1     -38.038 -49.402  11.861  1.00  0.00     0.015 A 
HETATM   27  C   UNL     1     -37.258 -50.643  11.548  1.00  0.00     0.015 A 
ENDBRANCH  11  25
TORSDOF 4
ENDMDL
MODEL 7
REMARK VINA RESULT:      -6.0      2.657      3.552
REMARK  4 active torsions:
REMARK  status: ('A' for Active; 'I' for Inactive)
REMARK    1  A    between atoms: C_2  and  C_4 
REMARK    2  A    between atoms: C_2  and  C_20 
REMARK    3  A    between atoms: C_4  and  N_5 
REMARK       I    between atoms: N_5  and  C_6 
REMARK       I    between atoms: C_6  and  N_8 
REMARK       I    between atoms: N_12  and  C_15 
REMARK    4  A    between atoms: C_15  and  C_17 
ROOT
HETATM    1  N   UNL     1     -42.034 -50.683  12.549  1.00  0.00    -0.342 N 
HETATM    2  C   UNL     1     -41.118 -49.803  12.035  1.00  0.00     0.318 C 
HETATM    3  O   UNL     1     -40.268 -50.152  11.221  1.00  0.00    -0.247 OA
HETATM    4  N   UNL     1     -41.219 -48.502  12.515  1.00  0.00    -0.333 N 
HETATM    5  C   UNL     1     -40.192 -47.552  12.085  1.00  0.00     0.129 C 
HETATM    6  C   UNL     1     -40.638 -46.760  10.857  1.00  0.00     0.040 C 
HETATM    7  C   UNL     1     -41.375 -45.476  11.234  1.00  0.00     0.127 C 
HETATM    8  N   UNL     1     -42.375 -45.613  12.294  1.00  0.00    -0.350 N 
HETATM    9  C   UNL     1     -43.133 -46.869  12.366  1.00  0.00     0.145 C 
HETATM   10  C   UNL     1     -42.401 -47.942  13.196  1.00  0.00     0.147 C 
HETATM   11  C   UNL     1     -42.617 -44.660  13.287  1.00  0.00     0.224 C 
HETATM   12  O   UNL     1     -43.404 -44.865  14.208  1.00  0.00    -0.273 OA
HETATM   13  H   UNL     1     -42.230 -50.520  13.527  1.00  0.00     0.164 HD
ENDROOT
BRANCH   1  14
HETATM   14  C   UNL     1     -41.956 -52.088  12.169  1.00  0.00     0.138 C 
BRANCH  14  15
HETATM   15  C   UNL     1     -41.810 -53.057  13.379  1.00  0.00    -0.004 C 
HETATM   16  C   UNL     1     -40.889 -54.225  12.950  1.00  0.00     0.021 C 
HETATM   17  C   UNL     1     -41.079 -52.304  14.514  1.00  0.00     0.021 C 
BRANCH  15  18
HETATM   18  C   UNL     1     -43.193 -53.522  13.875  1.00  0.00    -0.046 A 
HETATM   19  C   UNL     1     -43.568 -53.469  15.226  1.00  0.00     0.025 A 
HETATM   20  C   UNL     1     -44.807 -53.963  15.612  1.00  0.00     0.088 A 
HETATM   21  N   UNL     1     -45.702 -54.500  14.761  1.00  0.00    -0.375 N 
HETATM   22  C   UNL     1     -45.346 -54.531  13.462  1.00  0.00     0.088 A 
ATOM     23  HN  UNL     1     -46.599 -54.864  15.082  1.00  0.00     0.164 HD
HETATM   24  C   UNL     1     -44.132 -54.060  12.980  1.00  0.00     0.025 A 
ENDBRANCH  15  18
ENDBRANCH  14  15
ENDBRANCH   1  14
BRANCH  11  25
HETATM   25  C   UNL     1     -41.865 -43.368  13.251  1.00  0.00     0.078 A 
HETATM   26  C   UNL     1     -40.592 -43.245  14.060  1.00  0.00     0.015 A 
HETATM   27  C   UNL     1     -41.809 -42.469  14.466  1.00  0.00     0.015 A 
ENDBRANCH  11  25
TORSDOF 4
ENDMDL
MODEL 8
REMARK VINA RESULT:      -5.9      2.695      8.083
REMARK  4 active torsions:
REMARK  status: ('A' for Active; 'I' for Inactive)
REMARK    1  A    between atoms: C_2  and  C_4 
REMARK    2  A    between atoms: C_2  and  C_20 
REMARK    3  A    between atoms: C_4  and  N_5 
REMARK       I    between atoms: N_5  and  C_6 
REMARK       I    between atoms: C_6  and  N_8 
REMARK       I    between atoms: N_12  and  C_15 
REMARK    4  A    between atoms: C_15  and  C_17 
ROOT
HETATM    1  N   UNL     1     -40.896 -47.462  12.112  1.00  0.00    -0.342 N 
HETATM    2  C   UNL     1     -40.311 -48.699  12.048  1.00  0.00     0.318 C 
HETATM    3  O   UNL     1     -39.097 -48.838  11.942  1.00  0.00    -0.247 OA
HETATM    4  N   UNL     1     -41.195 -49.771  12.098  1.00  0.00    -0.333 N 
HETATM    5  C   UNL     1     -40.630 -51.109  11.917  1.00  0.00     0.129 C 
HETATM    6  C   UNL     1     -40.305 -51.768  13.256  1.00  0.00     0.040 C 
HETATM    7  C   UNL     1     -41.485 -52.566  13.809  1.00  0.00     0.127 C 
HETATM    8  N   UNL     1     -42.786 -51.899  13.733  1.00  0.00    -0.350 N 
HETATM    9  C   UNL     1     -42.822 -50.441  13.903  1.00  0.00     0.145 C 
HETATM   10  C   UNL     1     -42.589 -49.696  12.574  1.00  0.00     0.147 C 
HETATM   11  C   UNL     1     -43.993 -52.541  13.444  1.00  0.00     0.224 C 
HETATM   12  O   UNL     1     -45.043 -51.920  13.301  1.00  0.00    -0.273 OA
HETATM   13  H   UNL     1     -41.774 -47.416  11.613  1.00  0.00     0.164 HD
ENDROOT
BRANCH   1  14
HETATM   14  C   UNL     1     -40.060 -46.276  11.984  1.00  0.00     0.138 C 
BRANCH  14  15
HETATM   15  C   UNL     1     -40.594 -45.241  10.951  1.00  0.00    -0.004 C 
HETATM   16  C   UNL     1     -39.454 -44.928   9.952  1.00  0.00     0.021 C 
HETATM   17  C   UNL     1     -41.728 -45.910  10.142  1.00  0.00     0.021 C 
BRANCH  15  18
HETATM   18  C   UNL     1     -41.138 -43.988  11.665  1.00  0.00    -0.046 A 
HETATM   19  C   UNL     1     -40.465 -42.758  11.651  1.00  0.00     0.025 A 
HETATM   20  C   UNL     1     -40.982 -41.686  12.368  1.00  0.00     0.088 A 
HETATM   21  N   UNL     1     -42.116 -41.742  13.092  1.00  0.00    -0.375 N 
HETATM   22  C   UNL     1     -42.770 -42.919  13.087  1.00  0.00     0.088 A 
ATOM     23  HN  UNL     1     -42.461 -40.938  13.615  1.00  0.00     0.164 HD
HETATM   24  C   UNL     1     -42.334 -44.045  12.400  1.00  0.00     0.025 A 
ENDBRANCH  15  18
ENDBRANCH  14  15
ENDBRANCH   1  14
BRANCH  11  25
HETATM   25  C   UNL     1     -43.999 -54.026  13.262  1.00  0.00     0.078 A 
HETATM   26  C   UNL     1     -45.241 -54.800  13.646  1.00  0.00     0.015 A 
HETATM   27  C   UNL     1     -43.990 -54.954  14.457  1.00  0.00     0.015 A 
ENDBRANCH  11  25
TORSDOF 4
ENDMDL
MODEL 9
REMARK VINA RESULT:      -5.9      3.700      4.449
REMARK  4 active torsions:
REMARK  status: ('A' for Active; 'I' for Inactive)
REMARK    1  A    between atoms: C_2  and  C_4 
REMARK    2  A    between atoms: C_2  and  C_20 
REMARK    3  A    between atoms: C_4  and  N_5 
REMARK       I    between atoms: N_5  and  C_6 
REMARK       I    between atoms: C_6  and  N_8 
REMARK       I    between atoms: N_12  and  C_15 
REMARK    4  A    between atoms: C_15  and  C_17 
ROOT
HETATM    1  N   UNL     1     -42.294 -52.471  13.918  1.00  0.00    -0.342 N 
HETATM    2  C   UNL     1     -41.022 -52.511  13.410  1.00  0.00     0.318 C 
HETATM    3  O   UNL     1     -40.732 -53.203  12.439  1.00  0.00    -0.247 OA
HETATM    4  N   UNL     1     -40.095 -51.726  14.086  1.00  0.00    -0.333 N 
HETATM    5  C   UNL     1     -38.699 -51.824  13.654  1.00  0.00     0.129 C 
HETATM    6  C   UNL     1     -38.350 -50.741  12.634  1.00  0.00     0.040 C 
HETATM    7  C   UNL     1     -37.838 -49.465  13.299  1.00  0.00     0.127 C 
HETATM    8  N   UNL     1     -38.603 -49.012  14.463  1.00  0.00    -0.350 N 
HETATM    9  C   UNL     1     -40.055 -49.234  14.460  1.00  0.00     0.145 C 
HETATM   10  C   UNL     1     -40.430 -50.625  15.007  1.00  0.00     0.147 C 
HETATM   11  C   UNL     1     -38.043 -48.442  15.609  1.00  0.00     0.224 C 
HETATM   12  O   UNL     1     -38.721 -48.164  16.595  1.00  0.00    -0.273 OA
HETATM   13  H   UNL     1     -42.313 -52.424  14.928  1.00  0.00     0.164 HD
ENDROOT
BRANCH   1  14
HETATM   14  C   UNL     1     -43.318 -53.324  13.330  1.00  0.00     0.138 C 
BRANCH  14  15
HETATM   15  C   UNL     1     -44.222 -54.034  14.379  1.00  0.00    -0.004 C 
HETATM   16  C   UNL     1     -44.913 -55.233  13.686  1.00  0.00     0.021 C 
HETATM   17  C   UNL     1     -43.311 -54.620  15.482  1.00  0.00     0.021 C 
BRANCH  15  18
HETATM   18  C   UNL     1     -45.216 -53.038  15.007  1.00  0.00    -0.046 A 
HETATM   19  C   UNL     1     -45.492 -53.010  16.382  1.00  0.00     0.025 A 
HETATM   20  C   UNL     1     -46.446 -52.127  16.871  1.00  0.00     0.088 A 
HETATM   21  N   UNL     1     -47.142 -51.269  16.101  1.00  0.00    -0.375 N 
HETATM   22  C   UNL     1     -46.860 -51.284  14.785  1.00  0.00     0.088 A 
ATOM     23  HN  UNL     1     -47.844 -50.642  16.494  1.00  0.00     0.164 HD
HETATM   24  C   UNL     1     -45.923 -52.128  14.203  1.00  0.00     0.025 A 
ENDBRANCH  15  18
ENDBRANCH  14  15
ENDBRANCH   1  14
BRANCH  11  25
HETATM   25  C   UNL     1     -36.568 -48.201  15.653  1.00  0.00     0.078 A 
HETATM   26  C   UNL     1     -35.690 -49.194  16.383  1.00  0.00     0.015 A 
HETATM   27  C   UNL     1     -35.883 -47.818  16.946  1.00  0.00     0.015 A 
ENDBRANCH  11  25
TORSDOF 4
ENDMDL
