MODEL 1
REMARK VINA RESULT:      -6.3      0.000      0.000
REMARK  5 active torsions:
REMARK  status: ('A' for Active; 'I' for Inactive)
REMARK    1  A    between atoms: C_2  and  C_5 
REMARK    2  A    between atoms: N_8  and  C_9 
REMARK    3  A    between atoms: C_9  and  C_10 
REMARK       I    between atoms: C_10  and  N_12 
REMARK    4  A    between atoms: N_12  and  C_13 
REMARK    5  A    between atoms: C_13  and  C_14 
ROOT
HETATM    1  C   UNL     1     -42.169 -47.907  11.491  1.00  0.00     0.250 C 
ENDROOT
BRANCH   1   2
HETATM    2  N   UNL     1     -43.153 -47.521  10.501  1.00  0.00    -0.294 N 
HETATM    3  C   UNL     1     -42.980 -46.633   9.480  1.00  0.00     0.113 A 
HETATM    4  C   UNL     1     -44.131 -46.685   8.733  1.00  0.00     0.054 A 
HETATM    5  C   UNL     1     -44.960 -47.645   9.375  1.00  0.00     0.133 A 
HETATM    6  N   UNL     1     -44.344 -48.152  10.468  1.00  0.00    -0.294 N 
ATOM      7  HN  UNL     1     -44.699 -48.853  11.118  1.00  0.00     0.187 HD
BRANCH   5   8
HETATM    8  C   UNL     1     -46.333 -48.081   8.934  1.00  0.00     0.433 C 
HETATM    9  F   UNL     1     -46.818 -49.093   9.706  1.00  0.00    -0.165 F 
HETATM   10  F   UNL     1     -46.349 -48.533   7.652  1.00  0.00    -0.165 F 
HETATM   11  F   UNL     1     -47.244 -47.074   9.011  1.00  0.00    -0.165 F 
ENDBRANCH   5   8
ENDBRANCH   1   2
BRANCH   1  12
HETATM   12  C   UNL     1     -42.554 -49.187  12.188  1.00  0.00     0.237 C 
HETATM   13  O   UNL     1     -43.376 -49.209  13.101  1.00  0.00    -0.272 OA
HETATM   14  N   UNL     1     -41.901 -50.320  11.741  1.00  0.00    -0.359 N 
HETATM   15  H   UNL     1     -41.350 -50.261  10.890  1.00  0.00     0.162 HD
BRANCH  14  16
HETATM   16  C   UNL     1     -42.108 -51.622  12.347  1.00  0.00     0.129 C 
BRANCH  16  17
HETATM   17  C   UNL     1     -40.852 -52.475  12.495  1.00  0.00     0.029 C 
HETATM   18  C   UNL     1     -41.058 -53.833  13.138  1.00  0.00     0.034 C 
HETATM   19  C   UNL     1     -39.681 -54.182  13.676  1.00  0.00     0.168 C 
HETATM   20  O   UNL     1     -38.874 -52.998  13.624  1.00  0.00    -0.391 OA
HETATM   21  C   UNL     1     -39.743 -51.890  13.345  1.00  0.00     0.173 C 
ENDBRANCH  16  17
ENDBRANCH  14  16
ENDBRANCH   1  12
TORSDOF 5
ENDMDL
MODEL 2
REMARK VINA RESULT:      -6.3      1.369      1.845
REMARK  5 active torsions:
REMARK  status: ('A' for Active; 'I' for Inactive)
REMARK    1  A    between atoms: C_2  and  C_5 
REMARK    2  A    between atoms: N_8  and  C_9 
REMARK    3  A    between atoms: C_9  and  C_10 
REMARK       I    between atoms: C_10  and  N_12 
REMARK    4  A    between atoms: N_12  and  C_13 
REMARK    5  A    between atoms: C_13  and  C_14 
ROOT
HETATM    1  C   UNL     1     -41.963 -47.201  10.273  1.00  0.00     0.250 C 
ENDROOT
BRANCH   1   2
HETATM    2  N   UNL     1     -43.310 -46.963   9.795  1.00  0.00    -0.294 N 
HETATM    3  C   UNL     1     -43.790 -45.812   9.243  1.00  0.00     0.113 A 
HETATM    4  C   UNL     1     -45.068 -46.094   8.828  1.00  0.00     0.054 A 
HETATM    5  C   UNL     1     -45.287 -47.458   9.166  1.00  0.00     0.133 A 
HETATM    6  N   UNL     1     -44.192 -47.982   9.765  1.00  0.00    -0.294 N 
ATOM      7  HN  UNL     1     -44.065 -48.932  10.114  1.00  0.00     0.187 HD
BRANCH   5   8
HETATM    8  C   UNL     1     -46.538 -48.256   8.904  1.00  0.00     0.433 C 
HETATM    9  F   UNL     1     -46.689 -49.273   9.797  1.00  0.00    -0.165 F 
HETATM   10  F   UNL     1     -46.545 -48.824   7.669  1.00  0.00    -0.165 F 
HETATM   11  F   UNL     1     -47.663 -47.497   8.999  1.00  0.00    -0.165 F 
ENDBRANCH   5   8
ENDBRANCH   1   2
BRANCH   1  12
HETATM   12  C   UNL     1     -41.885 -48.447  11.117  1.00  0.00     0.237 C 
HETATM   13  O   UNL     1     -42.593 -48.605  12.110  1.00  0.00    -0.272 OA
HETATM   14  N   UNL     1     -40.951 -49.378  10.708  1.00  0.00    -0.359 N 
HETATM   15  H   UNL     1     -40.508 -49.259   9.802  1.00  0.00     0.162 HD
BRANCH  14  16
HETATM   16  C   UNL     1     -40.704 -50.603  11.447  1.00  0.00     0.129 C 
BRANCH  16  17
HETATM   17  C   UNL     1     -39.597 -50.517  12.493  1.00  0.00     0.029 C 
HETATM   18  C   UNL     1     -38.193 -50.348  11.945  1.00  0.00     0.034 C 
HETATM   19  C   UNL     1     -37.310 -50.866  13.068  1.00  0.00     0.168 C 
HETATM   20  O   UNL     1     -38.150 -51.553  14.007  1.00  0.00    -0.391 OA
HETATM   21  C   UNL     1     -39.439 -51.722  13.398  1.00  0.00     0.173 C 
ENDBRANCH  16  17
ENDBRANCH  14  16
ENDBRANCH   1  12
TORSDOF 5
ENDMDL
MODEL 3
REMARK VINA RESULT:      -6.1      2.314      3.142
REMARK  5 active torsions:
REMARK  status: ('A' for Active; 'I' for Inactive)
REMARK    1  A    between atoms: C_2  and  C_5 
REMARK    2  A    between atoms: N_8  and  C_9 
REMARK    3  A    between atoms: C_9  and  C_10 
REMARK       I    between atoms: C_10  and  N_12 
REMARK    4  A    between atoms: N_12  and  C_13 
REMARK    5  A    between atoms: C_13  and  C_14 
ROOT
HETATM    1  C   UNL     1     -40.225 -49.328  11.295  1.00  0.00     0.250 C 
ENDROOT
BRANCH   1   2
HETATM    2  N   UNL     1     -41.494 -48.740  10.918  1.00  0.00    -0.294 N 
HETATM    3  C   UNL     1     -42.479 -48.312  11.759  1.00  0.00     0.113 A 
HETATM    4  C   UNL     1     -43.426 -47.718  10.963  1.00  0.00     0.054 A 
HETATM    5  C   UNL     1     -42.931 -47.825   9.634  1.00  0.00     0.133 A 
HETATM    6  N   UNL     1     -41.736 -48.461   9.621  1.00  0.00    -0.294 N 
ATOM      7  HN  UNL     1     -41.151 -48.678   8.814  1.00  0.00     0.187 HD
BRANCH   5   8
HETATM    8  C   UNL     1     -43.596 -47.307   8.386  1.00  0.00     0.433 C 
HETATM    9  F   UNL     1     -43.303 -48.073   7.298  1.00  0.00    -0.165 F 
HETATM   10  F   UNL     1     -43.213 -46.040   8.078  1.00  0.00    -0.165 F 
HETATM   11  F   UNL     1     -44.952 -47.298   8.490  1.00  0.00    -0.165 F 
ENDBRANCH   5   8
ENDBRANCH   1   2
BRANCH   1  12
HETATM   12  C   UNL     1     -40.413 -50.555  12.150  1.00  0.00     0.237 C 
HETATM   13  O   UNL     1     -40.081 -50.581  13.333  1.00  0.00    -0.272 OA
HETATM   14  N   UNL     1     -40.961 -51.646  11.503  1.00  0.00    -0.359 N 
HETATM   15  H   UNL     1     -41.352 -51.517  10.575  1.00  0.00     0.162 HD
BRANCH  14  16
HETATM   16  C   UNL     1     -41.150 -52.924  12.165  1.00  0.00     0.129 C 
BRANCH  16  17
HETATM   17  C   UNL     1     -42.397 -53.024  13.037  1.00  0.00     0.029 C 
HETATM   18  C   UNL     1     -42.473 -54.250  13.927  1.00  0.00     0.034 C 
HETATM   19  C   UNL     1     -43.961 -54.397  14.199  1.00  0.00     0.168 C 
HETATM   20  O   UNL     1     -44.662 -53.538  13.289  1.00  0.00    -0.391 OA
HETATM   21  C   UNL     1     -43.722 -53.084  12.305  1.00  0.00     0.173 C 
ENDBRANCH  16  17
ENDBRANCH  14  16
ENDBRANCH   1  12
TORSDOF 5
ENDMDL
MODEL 4
REMARK VINA RESULT:      -5.9      3.077      6.292
REMARK  5 active torsions:
REMARK  status: ('A' for Active; 'I' for Inactive)
REMARK    1  A    between atoms: C_2  and  C_5 
REMARK    2  A    between atoms: N_8  and  C_9 
REMARK    3  A    between atoms: C_9  and  C_10 
REMARK       I    between atoms: C_10  and  N_12 
REMARK    4  A    between atoms: N_12  and  C_13 
REMARK    5  A    between atoms: C_13  and  C_14 
ROOT
HETATM    1  C   UNL     1     -42.084 -49.997  12.221  1.00  0.00     0.250 C 
ENDROOT
BRANCH   1   2
HETATM    2  N   UNL     1     -43.052 -50.737  13.004  1.00  0.00    -0.294 N 
HETATM    3  C   UNL     1     -42.830 -51.372  14.190  1.00  0.00     0.113 A 
HETATM    4  C   UNL     1     -44.056 -51.821  14.616  1.00  0.00     0.054 A 
HETATM    5  C   UNL     1     -44.982 -51.407  13.619  1.00  0.00     0.133 A 
HETATM    6  N   UNL     1     -44.347 -50.739  12.627  1.00  0.00    -0.294 N 
ATOM      7  HN  UNL     1     -44.756 -50.331  11.786  1.00  0.00     0.187 HD
BRANCH   5   8
HETATM    8  C   UNL     1     -46.470 -51.641  13.626  1.00  0.00     0.433 C 
HETATM    9  F   UNL     1     -47.048 -51.277  12.447  1.00  0.00    -0.165 F 
HETATM   10  F   UNL     1     -47.104 -50.934  14.599  1.00  0.00    -0.165 F 
HETATM   11  F   UNL     1     -46.786 -52.950  13.816  1.00  0.00    -0.165 F 
ENDBRANCH   5   8
ENDBRANCH   1   2
BRANCH   1  12
HETATM   12  C   UNL     1     -42.610 -48.642  11.822  1.00  0.00     0.237 C 
HETATM   13  O   UNL     1     -43.148 -47.889  12.631  1.00  0.00    -0.272 OA
HETATM   14  N   UNL     1     -42.463 -48.323  10.486  1.00  0.00    -0.359 N 
HETATM   15  H   UNL     1     -41.879 -48.916   9.904  1.00  0.00     0.162 HD
BRANCH  14  16
HETATM   16  C   UNL     1     -42.972 -47.085   9.926  1.00  0.00     0.129 C 
BRANCH  16  17
HETATM   17  C   UNL     1     -44.145 -47.243   8.963  1.00  0.00     0.029 C 
HETATM   18  C   UNL     1     -45.421 -47.791   9.573  1.00  0.00     0.034 C 
HETATM   19  C   UNL     1     -46.160 -48.375   8.381  1.00  0.00     0.168 C 
HETATM   20  O   UNL     1     -45.243 -48.435   7.280  1.00  0.00    -0.391 OA
HETATM   21  C   UNL     1     -43.927 -48.181   7.793  1.00  0.00     0.173 C 
ENDBRANCH  16  17
ENDBRANCH  14  16
ENDBRANCH   1  12
TORSDOF 5
ENDMDL
MODEL 5
REMARK VINA RESULT:      -5.9      2.047      2.801
REMARK  5 active torsions:
REMARK  status: ('A' for Active; 'I' for Inactive)
REMARK    1  A    between atoms: C_2  and  C_5 
REMARK    2  A    between atoms: N_8  and  C_9 
REMARK    3  A    between atoms: C_9  and  C_10 
REMARK       I    between atoms: C_10  and  N_12 
REMARK    4  A    between atoms: N_12  and  C_13 
REMARK    5  A    between atoms: C_13  and  C_14 
ROOT
HETATM    1  C   UNL     1     -42.504 -47.942  11.789  1.00  0.00     0.250 C 
ENDROOT
BRANCH   1   2
HETATM    2  N   UNL     1     -43.327 -47.684  10.626  1.00  0.00    -0.294 N 
HETATM    3  C   UNL     1     -42.931 -47.110   9.454  1.00  0.00     0.113 A 
HETATM    4  C   UNL     1     -44.010 -47.188   8.608  1.00  0.00     0.054 A 
HETATM    5  C   UNL     1     -45.033 -47.836   9.353  1.00  0.00     0.133 A 
HETATM    6  N   UNL     1     -44.598 -48.136  10.600  1.00  0.00    -0.294 N 
ATOM      7  HN  UNL     1     -45.114 -48.598  11.348  1.00  0.00     0.187 HD
BRANCH   5   8
HETATM    8  C   UNL     1     -46.416 -48.177   8.865  1.00  0.00     0.433 C 
HETATM    9  F   UNL     1     -46.416 -48.548   7.554  1.00  0.00    -0.165 F 
HETATM   10  F   UNL     1     -47.279 -47.132   8.970  1.00  0.00    -0.165 F 
HETATM   11  F   UNL     1     -46.965 -49.215   9.553  1.00  0.00    -0.165 F 
ENDBRANCH   5   8
ENDBRANCH   1   2
BRANCH   1  12
HETATM   12  C   UNL     1     -42.013 -49.367  11.817  1.00  0.00     0.237 C 
HETATM   13  O   UNL     1     -40.990 -49.715  11.230  1.00  0.00    -0.272 OA
HETATM   14  N   UNL     1     -42.804 -50.249  12.528  1.00  0.00    -0.359 N 
HETATM   15  H   UNL     1     -43.546 -49.876  13.112  1.00  0.00     0.162 HD
BRANCH  14  16
HETATM   16  C   UNL     1     -42.508 -51.668  12.601  1.00  0.00     0.129 C 
BRANCH  16  17
HETATM   17  C   UNL     1     -43.712 -52.590  12.440  1.00  0.00     0.029 C 
HETATM   18  C   UNL     1     -44.978 -52.139  13.142  1.00  0.00     0.034 C 
HETATM   19  C   UNL     1     -45.764 -53.428  13.316  1.00  0.00     0.168 C 
HETATM   20  O   UNL     1     -44.883 -54.523  13.033  1.00  0.00    -0.391 OA
HETATM   21  C   UNL     1     -43.547 -54.002  12.964  1.00  0.00     0.173 C 
ENDBRANCH  16  17
ENDBRANCH  14  16
ENDBRANCH   1  12
TORSDOF 5
ENDMDL
MODEL 6
REMARK VINA RESULT:      -5.7      3.103      6.129
REMARK  5 active torsions:
REMARK  status: ('A' for Active; 'I' for Inactive)
REMARK    1  A    between atoms: C_2  and  C_5 
REMARK    2  A    between atoms: N_8  and  C_9 
REMARK    3  A    between atoms: C_9  and  C_10 
REMARK       I    between atoms: C_10  and  N_12 
REMARK    4  A    between atoms: N_12  and  C_13 
REMARK    5  A    between atoms: C_13  and  C_14 
ROOT
HETATM    1  C   UNL     1     -41.756 -52.593  11.928  1.00  0.00     0.250 C 
ENDROOT
BRANCH   1   2
HETATM    2  N   UNL     1     -43.001 -52.927  12.589  1.00  0.00    -0.294 N 
HETATM    3  C   UNL     1     -43.243 -54.015  13.375  1.00  0.00     0.113 A 
HETATM    4  C   UNL     1     -44.508 -53.844  13.879  1.00  0.00     0.054 A 
HETATM    5  C   UNL     1     -44.969 -52.610  13.345  1.00  0.00     0.133 A 
HETATM    6  N   UNL     1     -44.028 -52.054  12.548  1.00  0.00    -0.294 N 
ATOM      7  HN  UNL     1     -44.083 -51.175  12.033  1.00  0.00     0.187 HD
BRANCH   5   8
HETATM    8  C   UNL     1     -46.303 -51.962  13.611  1.00  0.00     0.433 C 
HETATM    9  F   UNL     1     -46.832 -51.407  12.485  1.00  0.00    -0.165 F 
HETATM   10  F   UNL     1     -46.224 -50.964  14.531  1.00  0.00    -0.165 F 
HETATM   11  F   UNL     1     -47.227 -52.850  14.067  1.00  0.00    -0.165 F 
ENDBRANCH   5   8
ENDBRANCH   1   2
BRANCH   1  12
HETATM   12  C   UNL     1     -41.336 -51.174  12.216  1.00  0.00     0.237 C 
HETATM   13  O   UNL     1     -41.415 -50.688  13.343  1.00  0.00    -0.272 OA
HETATM   14  N   UNL     1     -40.882 -50.461  11.124  1.00  0.00    -0.359 N 
HETATM   15  H   UNL     1     -40.698 -50.959  10.258  1.00  0.00     0.162 HD
BRANCH  14  16
HETATM   16  C   UNL     1     -40.500 -49.063  11.217  1.00  0.00     0.129 C 
BRANCH  16  17
HETATM   17  C   UNL     1     -41.473 -48.082  10.572  1.00  0.00     0.029 C 
HETATM   18  C   UNL     1     -41.096 -46.617  10.689  1.00  0.00     0.034 C 
HETATM   19  C   UNL     1     -42.423 -45.896  10.522  1.00  0.00     0.168 C 
HETATM   20  O   UNL     1     -43.470 -46.870  10.629  1.00  0.00    -0.391 OA
HETATM   21  C   UNL     1     -42.887 -48.087  11.117  1.00  0.00     0.173 C 
ENDBRANCH  16  17
ENDBRANCH  14  16
ENDBRANCH   1  12
TORSDOF 5
ENDMDL
MODEL 7
REMARK VINA RESULT:      -5.6      4.495      6.568
REMARK  5 active torsions:
REMARK  status: ('A' for Active; 'I' for Inactive)
REMARK    1  A    between atoms: C_2  and  C_5 
REMARK    2  A    between atoms: N_8  and  C_9 
REMARK    3  A    between atoms: C_9  and  C_10 
REMARK       I    between atoms: C_10  and  N_12 
REMARK    4  A    between atoms: N_12  and  C_13 
REMARK    5  A    between atoms: C_13  and  C_14 
ROOT
HETATM    1  C   UNL     1     -40.892 -53.373  12.449  1.00  0.00     0.250 C 
ENDROOT
BRANCH   1   2
HETATM    2  N   UNL     1     -41.897 -53.972  13.303  1.00  0.00    -0.294 N 
HETATM    3  C   UNL     1     -41.719 -54.435  14.574  1.00  0.00     0.113 A 
HETATM    4  C   UNL     1     -42.965 -54.792  15.026  1.00  0.00     0.054 A 
HETATM    5  C   UNL     1     -43.856 -54.508  13.954  1.00  0.00     0.133 A 
HETATM    6  N   UNL     1     -43.181 -54.003  12.895  1.00  0.00    -0.294 N 
ATOM      7  HN  UNL     1     -43.560 -53.711  11.994  1.00  0.00     0.187 HD
BRANCH   5   8
HETATM    8  C   UNL     1     -45.349 -54.708  13.954  1.00  0.00     0.433 C 
HETATM    9  F   UNL     1     -45.886 -54.530  15.193  1.00  0.00    -0.165 F 
HETATM   10  F   UNL     1     -45.707 -55.957  13.555  1.00  0.00    -0.165 F 
HETATM   11  F   UNL     1     -45.987 -53.831  13.133  1.00  0.00    -0.165 F 
ENDBRANCH   5   8
ENDBRANCH   1   2
BRANCH   1  12
HETATM   12  C   UNL     1     -41.133 -51.897  12.259  1.00  0.00     0.237 C 
HETATM   13  O   UNL     1     -42.145 -51.343  12.683  1.00  0.00    -0.272 OA
HETATM   14  N   UNL     1     -40.150 -51.225  11.558  1.00  0.00    -0.359 N 
HETATM   15  H   UNL     1     -39.274 -51.702  11.368  1.00  0.00     0.162 HD
BRANCH  14  16
HETATM   16  C   UNL     1     -40.258 -49.814  11.233  1.00  0.00     0.129 C 
BRANCH  16  17
HETATM   17  C   UNL     1     -39.359 -48.891  12.049  1.00  0.00     0.029 C 
HETATM   18  C   UNL     1     -38.092 -49.525  12.591  1.00  0.00     0.034 C 
HETATM   19  C   UNL     1     -37.729 -48.638  13.770  1.00  0.00     0.168 C 
HETATM   20  O   UNL     1     -38.855 -47.796  14.050  1.00  0.00    -0.391 OA
HETATM   21  C   UNL     1     -39.972 -48.295  13.299  1.00  0.00     0.173 C 
ENDBRANCH  16  17
ENDBRANCH  14  16
ENDBRANCH   1  12
TORSDOF 5
ENDMDL
MODEL 8
REMARK VINA RESULT:      -5.3      3.549      4.241
REMARK  5 active torsions:
REMARK  status: ('A' for Active; 'I' for Inactive)
REMARK    1  A    between atoms: C_2  and  C_5 
REMARK    2  A    between atoms: N_8  and  C_9 
REMARK    3  A    between atoms: C_9  and  C_10 
REMARK       I    between atoms: C_10  and  N_12 
REMARK    4  A    between atoms: N_12  and  C_13 
REMARK    5  A    between atoms: C_13  and  C_14 
ROOT
HETATM    1  C   UNL     1     -40.223 -48.963  11.379  1.00  0.00     0.250 C 
ENDROOT
BRANCH   1   2
HETATM    2  N   UNL     1     -41.540 -48.483  11.016  1.00  0.00    -0.294 N 
HETATM    3  C   UNL     1     -42.511 -48.040  11.865  1.00  0.00     0.113 A 
HETATM    4  C   UNL     1     -43.527 -47.572  11.068  1.00  0.00     0.054 A 
HETATM    5  C   UNL     1     -43.085 -47.767   9.731  1.00  0.00     0.133 A 
HETATM    6  N   UNL     1     -41.855 -48.333   9.714  1.00  0.00    -0.294 N 
ATOM      7  HN  UNL     1     -41.295 -48.587   8.900  1.00  0.00     0.187 HD
BRANCH   5   8
HETATM    8  C   UNL     1     -43.834 -47.399   8.478  1.00  0.00     0.433 C 
HETATM    9  F   UNL     1     -43.077 -47.581   7.360  1.00  0.00    -0.165 F 
HETATM   10  F   UNL     1     -44.227 -46.098   8.468  1.00  0.00    -0.165 F 
HETATM   11  F   UNL     1     -44.953 -48.153   8.305  1.00  0.00    -0.165 F 
ENDBRANCH   5   8
ENDBRANCH   1   2
BRANCH   1  12
HETATM   12  C   UNL     1     -39.614 -48.136  12.483  1.00  0.00     0.237 C 
HETATM   13  O   UNL     1     -39.474 -46.919  12.382  1.00  0.00    -0.272 OA
HETATM   14  N   UNL     1     -39.210 -48.847  13.597  1.00  0.00    -0.359 N 
HETATM   15  H   UNL     1     -39.489 -49.819  13.683  1.00  0.00     0.162 HD
BRANCH  14  16
HETATM   16  C   UNL     1     -38.548 -48.211  14.721  1.00  0.00     0.129 C 
BRANCH  16  17
HETATM   17  C   UNL     1     -37.110 -48.659  14.964  1.00  0.00     0.029 C 
HETATM   18  C   UNL     1     -36.949 -50.043  15.563  1.00  0.00     0.034 C 
HETATM   19  C   UNL     1     -35.577 -49.989  16.213  1.00  0.00     0.168 C 
HETATM   20  O   UNL     1     -35.161 -48.618  16.251  1.00  0.00    -0.391 OA
HETATM   21  C   UNL     1     -36.297 -47.807  15.917  1.00  0.00     0.173 C 
ENDBRANCH  16  17
ENDBRANCH  14  16
ENDBRANCH   1  12
TORSDOF 5
ENDMDL
MODEL 9
REMARK VINA RESULT:      -5.3      4.610      7.473
REMARK  5 active torsions:
REMARK  status: ('A' for Active; 'I' for Inactive)
REMARK    1  A    between atoms: C_2  and  C_5 
REMARK    2  A    between atoms: N_8  and  C_9 
REMARK    3  A    between atoms: C_9  and  C_10 
REMARK       I    between atoms: C_10  and  N_12 
REMARK    4  A    between atoms: N_12  and  C_13 
REMARK    5  A    between atoms: C_13  and  C_14 
ROOT
HETATM    1  C   UNL     1     -42.106 -48.142  12.549  1.00  0.00     0.250 C 
ENDROOT
BRANCH   1   2
HETATM    2  N   UNL     1     -41.123 -49.205  12.494  1.00  0.00    -0.294 N 
HETATM    3  C   UNL     1     -41.369 -50.538  12.349  1.00  0.00     0.113 A 
HETATM    4  C   UNL     1     -40.141 -51.139  12.222  1.00  0.00     0.054 A 
HETATM    5  C   UNL     1     -39.190 -50.085  12.298  1.00  0.00     0.133 A 
HETATM    6  N   UNL     1     -39.811 -48.894  12.468  1.00  0.00    -0.294 N 
ATOM      7  HN  UNL     1     -39.384 -47.972  12.556  1.00  0.00     0.187 HD
BRANCH   5   8
HETATM    8  C   UNL     1     -37.694 -50.220  12.195  1.00  0.00     0.433 C 
HETATM    9  F   UNL     1     -37.235 -51.316  12.862  1.00  0.00    -0.165 F 
HETATM   10  F   UNL     1     -37.036 -49.150  12.716  1.00  0.00    -0.165 F 
HETATM   11  F   UNL     1     -37.275 -50.355  10.908  1.00  0.00    -0.165 F 
ENDBRANCH   5   8
ENDBRANCH   1   2
BRANCH   1  12
HETATM   12  C   UNL     1     -42.224 -47.425  11.228  1.00  0.00     0.237 C 
HETATM   13  O   UNL     1     -41.293 -47.381  10.426  1.00  0.00    -0.272 OA
HETATM   14  N   UNL     1     -43.439 -46.809  10.999  1.00  0.00    -0.359 N 
HETATM   15  H   UNL     1     -44.213 -47.008  11.626  1.00  0.00     0.162 HD
BRANCH  14  16
HETATM   16  C   UNL     1     -43.696 -46.024   9.805  1.00  0.00     0.129 C 
BRANCH  16  17
HETATM   17  C   UNL     1     -44.567 -46.707   8.756  1.00  0.00     0.029 C 
HETATM   18  C   UNL     1     -45.800 -47.412   9.289  1.00  0.00     0.034 C 
HETATM   19  C   UNL     1     -46.118 -48.433   8.210  1.00  0.00     0.168 C 
HETATM   20  O   UNL     1     -44.990 -48.506   7.327  1.00  0.00    -0.391 OA
HETATM   21  C   UNL     1     -43.903 -47.802   7.946  1.00  0.00     0.173 C 
ENDBRANCH  16  17
ENDBRANCH  14  16
ENDBRANCH   1  12
TORSDOF 5
ENDMDL
