MODEL 1
REMARK VINA RESULT:      -6.1      0.000      0.000
REMARK  4 active torsions:
REMARK  status: ('A' for Active; 'I' for Inactive)
REMARK    1  A    between atoms: C_2  and  C_5 
REMARK       I    between atoms: C_5  and  N_7 
REMARK    2  A    between atoms: N_7  and  C_8 
REMARK    3  A    between atoms: C_11  and  C_12 
REMARK    4  A    between atoms: C_12  and  C_13 
REMARK       I    between atoms: C_13  and  N_15 
ROOT
HETATM    1  C   UNL     1     -41.469 -49.001  11.209  1.00  0.00     0.151 A 
HETATM    2  N   UNL     1     -40.165 -48.946  11.025  1.00  0.00    -0.339 N 
ATOM      3  HN  UNL     1     -39.704 -48.621  10.175  1.00  0.00     0.168 HD
HETATM    4  C   UNL     1     -39.509 -49.401  12.177  1.00  0.00     0.026 A 
HETATM    5  C   UNL     1     -40.355 -49.835  13.181  1.00  0.00     0.078 A 
HETATM    6  S   UNL     1     -41.973 -49.723  12.672  1.00  0.00    -0.064 SA
ENDROOT
BRANCH   1   7
HETATM    7  N   UNL     1     -42.379 -48.557  10.263  1.00  0.00    -0.306 N 
HETATM    8  C   UNL     1     -43.042 -47.344  10.330  1.00  0.00     0.231 C 
HETATM    9  O   UNL     1     -42.888 -46.507  11.220  1.00  0.00    -0.272 OA
HETATM   10  H   UNL     1     -42.378 -49.096   9.411  1.00  0.00     0.171 HD
BRANCH   8  11
HETATM   11  C   UNL     1     -44.018 -47.035   9.168  1.00  0.00     0.030 C 
HETATM   12  C   UNL     1     -45.402 -47.612   9.540  1.00  0.00     0.025 C 
HETATM   13  C   UNL     1     -43.555 -47.705   7.868  1.00  0.00     0.025 C 
HETATM   14  C   UNL     1     -44.166 -45.524   8.961  1.00  0.00     0.025 C 
ENDBRANCH   8  11
ENDBRANCH   1   7
BRANCH   4  15
HETATM   15  C   UNL     1     -38.019 -49.333  12.275  1.00  0.00     0.160 C 
BRANCH  15  16
HETATM   16  C   UNL     1     -37.339 -50.483  11.552  1.00  0.00     0.221 C 
HETATM   17  O   UNL     1     -36.927 -51.499  12.104  1.00  0.00    -0.273 OA
HETATM   18  N   UNL     1     -37.159 -50.322  10.208  1.00  0.00    -0.370 N 
HETATM   19  H   UNL     1     -37.535 -49.544   9.685  1.00  0.00     0.159 HD
HETATM   20  H   UNL     1     -36.741 -51.092   9.700  1.00  0.00     0.159 HD
ENDBRANCH  15  16
ENDBRANCH   4  15
TORSDOF 4
ENDMDL
MODEL 2
REMARK VINA RESULT:      -6.0      2.285      2.594
REMARK  4 active torsions:
REMARK  status: ('A' for Active; 'I' for Inactive)
REMARK    1  A    between atoms: C_2  and  C_5 
REMARK       I    between atoms: C_5  and  N_7 
REMARK    2  A    between atoms: N_7  and  C_8 
REMARK    3  A    between atoms: C_11  and  C_12 
REMARK    4  A    between atoms: C_12  and  C_13 
REMARK       I    between atoms: C_13  and  N_15 
ROOT
HETATM    1  C   UNL     1     -41.218 -48.703  10.858  1.00  0.00     0.151 A 
HETATM    2  N   UNL     1     -41.395 -49.912  11.351  1.00  0.00    -0.339 N 
ATOM      3  HN  UNL     1     -42.157 -50.543  11.103  1.00  0.00     0.168 HD
HETATM    4  C   UNL     1     -40.375 -50.199  12.269  1.00  0.00     0.026 A 
HETATM    5  C   UNL     1     -39.484 -49.160  12.473  1.00  0.00     0.078 A 
HETATM    6  S   UNL     1     -39.945 -47.805  11.557  1.00  0.00    -0.064 SA
ENDROOT
BRANCH   1   7
HETATM    7  N   UNL     1     -42.037 -48.165   9.878  1.00  0.00    -0.306 N 
HETATM    8  C   UNL     1     -43.354 -47.791  10.084  1.00  0.00     0.231 C 
HETATM    9  O   UNL     1     -43.946 -47.866  11.162  1.00  0.00    -0.272 OA
HETATM   10  H   UNL     1     -41.545 -47.878   9.046  1.00  0.00     0.171 HD
BRANCH   8  11
HETATM   11  C   UNL     1     -44.097 -47.207   8.857  1.00  0.00     0.030 C 
HETATM   12  C   UNL     1     -45.577 -47.641   8.944  1.00  0.00     0.025 C 
HETATM   13  C   UNL     1     -43.513 -47.756   7.548  1.00  0.00     0.025 C 
HETATM   14  C   UNL     1     -44.043 -45.675   8.858  1.00  0.00     0.025 C 
ENDBRANCH   8  11
ENDBRANCH   1   7
BRANCH   4  15
HETATM   15  C   UNL     1     -40.276 -51.555  12.890  1.00  0.00     0.160 C 
BRANCH  15  16
HETATM   16  C   UNL     1     -41.281 -52.532  12.307  1.00  0.00     0.221 C 
HETATM   17  O   UNL     1     -42.495 -52.451  12.465  1.00  0.00    -0.273 OA
HETATM   18  N   UNL     1     -40.758 -53.577  11.599  1.00  0.00    -0.370 N 
HETATM   19  H   UNL     1     -39.777 -53.662  11.376  1.00  0.00     0.159 HD
HETATM   20  H   UNL     1     -41.412 -54.221  11.170  1.00  0.00     0.159 HD
ENDBRANCH  15  16
ENDBRANCH   4  15
TORSDOF 4
ENDMDL
MODEL 3
REMARK VINA RESULT:      -5.8      2.330      6.388
REMARK  4 active torsions:
REMARK  status: ('A' for Active; 'I' for Inactive)
REMARK    1  A    between atoms: C_2  and  C_5 
REMARK       I    between atoms: C_5  and  N_7 
REMARK    2  A    between atoms: N_7  and  C_8 
REMARK    3  A    between atoms: C_11  and  C_12 
REMARK    4  A    between atoms: C_12  and  C_13 
REMARK       I    between atoms: C_13  and  N_15 
ROOT
HETATM    1  C   UNL     1     -40.823 -47.290  10.823  1.00  0.00     0.151 A 
HETATM    2  N   UNL     1     -41.926 -47.881  10.410  1.00  0.00    -0.339 N 
ATOM      3  HN  UNL     1     -42.059 -48.889  10.331  1.00  0.00     0.168 HD
HETATM    4  C   UNL     1     -42.890 -46.912  10.098  1.00  0.00     0.026 A 
HETATM    5  C   UNL     1     -42.453 -45.608  10.240  1.00  0.00     0.078 A 
HETATM    6  S   UNL     1     -40.822 -45.586  10.718  1.00  0.00    -0.064 SA
ENDROOT
BRANCH   1   7
HETATM    7  N   UNL     1     -39.713 -47.995  11.261  1.00  0.00    -0.306 N 
HETATM    8  C   UNL     1     -39.766 -49.055  12.149  1.00  0.00     0.231 C 
HETATM    9  O   UNL     1     -40.800 -49.513  12.636  1.00  0.00    -0.272 OA
HETATM   10  H   UNL     1     -38.876 -47.809  10.731  1.00  0.00     0.171 HD
BRANCH   8  11
HETATM   11  C   UNL     1     -38.410 -49.710  12.509  1.00  0.00     0.030 C 
HETATM   12  C   UNL     1     -38.695 -51.119  13.076  1.00  0.00     0.025 C 
HETATM   13  C   UNL     1     -37.676 -48.901  13.586  1.00  0.00     0.025 C 
HETATM   14  C   UNL     1     -37.525 -49.862  11.266  1.00  0.00     0.025 C 
ENDBRANCH   8  11
ENDBRANCH   1   7
BRANCH   4  15
HETATM   15  C   UNL     1     -44.275 -47.320   9.714  1.00  0.00     0.160 C 
BRANCH  15  16
HETATM   16  C   UNL     1     -44.346 -47.867   8.298  1.00  0.00     0.221 C 
HETATM   17  O   UNL     1     -43.408 -47.856   7.506  1.00  0.00    -0.273 OA
HETATM   18  N   UNL     1     -45.557 -48.359   7.907  1.00  0.00    -0.370 N 
HETATM   19  H   UNL     1     -46.346 -48.459   8.530  1.00  0.00     0.159 HD
HETATM   20  H   UNL     1     -45.617 -48.763   6.980  1.00  0.00     0.159 HD
ENDBRANCH  15  16
ENDBRANCH   4  15
TORSDOF 4
ENDMDL
MODEL 4
REMARK VINA RESULT:      -5.7      3.989      4.602
REMARK  4 active torsions:
REMARK  status: ('A' for Active; 'I' for Inactive)
REMARK    1  A    between atoms: C_2  and  C_5 
REMARK       I    between atoms: C_5  and  N_7 
REMARK    2  A    between atoms: N_7  and  C_8 
REMARK    3  A    between atoms: C_11  and  C_12 
REMARK    4  A    between atoms: C_12  and  C_13 
REMARK       I    between atoms: C_13  and  N_15 
ROOT
HETATM    1  C   UNL     1     -42.345 -51.858  12.494  1.00  0.00     0.151 A 
HETATM    2  N   UNL     1     -41.938 -50.764  11.882  1.00  0.00    -0.339 N 
ATOM      3  HN  UNL     1     -42.546 -50.084  11.426  1.00  0.00     0.168 HD
HETATM    4  C   UNL     1     -40.540 -50.678  11.954  1.00  0.00     0.026 A 
HETATM    5  C   UNL     1     -39.935 -51.751  12.582  1.00  0.00     0.078 A 
HETATM    6  S   UNL     1     -41.104 -52.896  13.043  1.00  0.00    -0.064 SA
ENDROOT
BRANCH   1   7
HETATM    7  N   UNL     1     -43.684 -52.182  12.640  1.00  0.00    -0.306 N 
HETATM    8  C   UNL     1     -44.581 -51.457  13.406  1.00  0.00     0.231 C 
HETATM    9  O   UNL     1     -44.306 -50.430  14.027  1.00  0.00    -0.272 OA
HETATM   10  H   UNL     1     -44.010 -52.876  11.985  1.00  0.00     0.171 HD
BRANCH   8  11
HETATM   11  C   UNL     1     -46.036 -51.986  13.434  1.00  0.00     0.030 C 
HETATM   12  C   UNL     1     -45.984 -53.519  13.620  1.00  0.00     0.025 C 
HETATM   13  C   UNL     1     -46.755 -51.689  12.111  1.00  0.00     0.025 C 
HETATM   14  C   UNL     1     -46.818 -51.385  14.608  1.00  0.00     0.025 C 
ENDBRANCH   8  11
ENDBRANCH   1   7
BRANCH   4  15
HETATM   15  C   UNL     1     -39.830 -49.470  11.435  1.00  0.00     0.160 C 
BRANCH  15  16
HETATM   16  C   UNL     1     -38.327 -49.549  11.642  1.00  0.00     0.221 C 
HETATM   17  O   UNL     1     -37.750 -49.184  12.662  1.00  0.00    -0.273 OA
HETATM   18  N   UNL     1     -37.603 -50.029  10.589  1.00  0.00    -0.370 N 
HETATM   19  H   UNL     1     -38.022 -50.409   9.752  1.00  0.00     0.159 HD
HETATM   20  H   UNL     1     -36.603 -50.126  10.718  1.00  0.00     0.159 HD
ENDBRANCH  15  16
ENDBRANCH   4  15
TORSDOF 4
ENDMDL
MODEL 5
REMARK VINA RESULT:      -5.6      4.032      5.129
REMARK  4 active torsions:
REMARK  status: ('A' for Active; 'I' for Inactive)
REMARK    1  A    between atoms: C_2  and  C_5 
REMARK       I    between atoms: C_5  and  N_7 
REMARK    2  A    between atoms: N_7  and  C_8 
REMARK    3  A    between atoms: C_11  and  C_12 
REMARK    4  A    between atoms: C_12  and  C_13 
REMARK       I    between atoms: C_13  and  N_15 
ROOT
HETATM    1  C   UNL     1     -42.382 -51.880  12.484  1.00  0.00     0.151 A 
HETATM    2  N   UNL     1     -42.044 -50.765  11.865  1.00  0.00    -0.339 N 
ATOM      3  HN  UNL     1     -42.698 -50.112  11.433  1.00  0.00     0.168 HD
HETATM    4  C   UNL     1     -40.651 -50.616  11.893  1.00  0.00     0.026 A 
HETATM    5  C   UNL     1     -39.978 -51.664  12.495  1.00  0.00     0.078 A 
HETATM    6  S   UNL     1     -41.079 -52.862  12.986  1.00  0.00    -0.064 SA
ENDROOT
BRANCH   1   7
HETATM    7  N   UNL     1     -43.700 -52.264  12.670  1.00  0.00    -0.306 N 
HETATM    8  C   UNL     1     -44.628 -51.535  13.393  1.00  0.00     0.231 C 
HETATM    9  O   UNL     1     -44.404 -50.452  13.936  1.00  0.00    -0.272 OA
HETATM   10  H   UNL     1     -43.993 -53.020  12.071  1.00  0.00     0.171 HD
BRANCH   8  11
HETATM   11  C   UNL     1     -46.051 -52.139  13.479  1.00  0.00     0.030 C 
HETATM   12  C   UNL     1     -46.793 -51.452  14.647  1.00  0.00     0.025 C 
HETATM   13  C   UNL     1     -45.994 -53.645  13.769  1.00  0.00     0.025 C 
HETATM   14  C   UNL     1     -46.838 -51.879  12.189  1.00  0.00     0.025 C 
ENDBRANCH   8  11
ENDBRANCH   1   7
BRANCH   4  15
HETATM   15  C   UNL     1     -40.013 -49.375  11.359  1.00  0.00     0.160 C 
BRANCH  15  16
HETATM   16  C   UNL     1     -41.024 -48.274  11.092  1.00  0.00     0.221 C 
HETATM   17  O   UNL     1     -41.408 -47.469  11.935  1.00  0.00    -0.273 OA
HETATM   18  N   UNL     1     -41.546 -48.233   9.831  1.00  0.00    -0.370 N 
HETATM   19  H   UNL     1     -41.222 -48.821   9.075  1.00  0.00     0.159 HD
HETATM   20  H   UNL     1     -42.194 -47.484   9.620  1.00  0.00     0.159 HD
ENDBRANCH  15  16
ENDBRANCH   4  15
TORSDOF 4
ENDMDL
MODEL 6
REMARK VINA RESULT:      -5.3      3.233      6.090
REMARK  4 active torsions:
REMARK  status: ('A' for Active; 'I' for Inactive)
REMARK    1  A    between atoms: C_2  and  C_5 
REMARK       I    between atoms: C_5  and  N_7 
REMARK    2  A    between atoms: N_7  and  C_8 
REMARK    3  A    between atoms: C_11  and  C_12 
REMARK    4  A    between atoms: C_12  and  C_13 
REMARK       I    between atoms: C_13  and  N_15 
ROOT
HETATM    1  C   UNL     1     -43.036 -49.138  12.410  1.00  0.00     0.151 A 
HETATM    2  N   UNL     1     -42.920 -48.836  11.132  1.00  0.00    -0.339 N 
ATOM      3  HN  UNL     1     -42.947 -49.508  10.364  1.00  0.00     0.168 HD
HETATM    4  C   UNL     1     -42.756 -47.451  10.990  1.00  0.00     0.026 A 
HETATM    5  C   UNL     1     -42.702 -46.759  12.185  1.00  0.00     0.078 A 
HETATM    6  S   UNL     1     -42.807 -47.839  13.493  1.00  0.00    -0.064 SA
ENDROOT
BRANCH   1   7
HETATM    7  N   UNL     1     -43.271 -50.429  12.857  1.00  0.00    -0.306 N 
HETATM    8  C   UNL     1     -42.445 -51.507  12.590  1.00  0.00     0.231 C 
HETATM    9  O   UNL     1     -41.397 -51.448  11.946  1.00  0.00    -0.272 OA
HETATM   10  H   UNL     1     -43.986 -50.492  13.565  1.00  0.00     0.171 HD
BRANCH   8  11
HETATM   11  C   UNL     1     -42.886 -52.867  13.186  1.00  0.00     0.030 C 
HETATM   12  C   UNL     1     -41.706 -53.854  13.047  1.00  0.00     0.025 C 
HETATM   13  C   UNL     1     -44.083 -53.442  12.419  1.00  0.00     0.025 C 
HETATM   14  C   UNL     1     -43.227 -52.730  14.674  1.00  0.00     0.025 C 
ENDBRANCH   8  11
ENDBRANCH   1   7
BRANCH   4  15
HETATM   15  C   UNL     1     -42.717 -46.831   9.631  1.00  0.00     0.160 C 
BRANCH  15  16
HETATM   16  C   UNL     1     -43.663 -47.511   8.657  1.00  0.00     0.221 C 
HETATM   17  O   UNL     1     -44.842 -47.755   8.896  1.00  0.00    -0.273 OA
HETATM   18  N   UNL     1     -43.121 -47.893   7.464  1.00  0.00    -0.370 N 
HETATM   19  H   UNL     1     -42.180 -47.661   7.180  1.00  0.00     0.159 HD
HETATM   20  H   UNL     1     -43.743 -48.315   6.784  1.00  0.00     0.159 HD
ENDBRANCH  15  16
ENDBRANCH   4  15
TORSDOF 4
ENDMDL
MODEL 7
REMARK VINA RESULT:      -5.3      4.197      5.698
REMARK  4 active torsions:
REMARK  status: ('A' for Active; 'I' for Inactive)
REMARK    1  A    between atoms: C_2  and  C_5 
REMARK       I    between atoms: C_5  and  N_7 
REMARK    2  A    between atoms: N_7  and  C_8 
REMARK    3  A    between atoms: C_11  and  C_12 
REMARK    4  A    between atoms: C_12  and  C_13 
REMARK       I    between atoms: C_13  and  N_15 
ROOT
HETATM    1  C   UNL     1     -42.068 -51.608  12.263  1.00  0.00     0.151 A 
HETATM    2  N   UNL     1     -43.275 -52.096  12.470  1.00  0.00    -0.339 N 
ATOM      3  HN  UNL     1     -44.148 -51.594  12.312  1.00  0.00     0.168 HD
HETATM    4  C   UNL     1     -43.174 -53.414  12.940  1.00  0.00     0.026 A 
HETATM    5  C   UNL     1     -41.876 -53.856  13.119  1.00  0.00     0.078 A 
HETATM    6  S   UNL     1     -40.777 -52.613  12.749  1.00  0.00    -0.064 SA
ENDROOT
BRANCH   1   7
HETATM    7  N   UNL     1     -41.851 -50.343  11.739  1.00  0.00    -0.306 N 
HETATM    8  C   UNL     1     -42.490 -49.198  12.182  1.00  0.00     0.231 C 
HETATM    9  O   UNL     1     -43.305 -49.159  13.105  1.00  0.00    -0.272 OA
HETATM   10  H   UNL     1     -41.042 -50.283  11.141  1.00  0.00     0.171 HD
BRANCH   8  11
HETATM   11  C   UNL     1     -42.102 -47.881  11.464  1.00  0.00     0.030 C 
HETATM   12  C   UNL     1     -40.560 -47.807  11.401  1.00  0.00     0.025 C 
HETATM   13  C   UNL     1     -42.609 -46.660  12.242  1.00  0.00     0.025 C 
HETATM   14  C   UNL     1     -42.644 -47.857  10.030  1.00  0.00     0.025 C 
ENDBRANCH   8  11
ENDBRANCH   1   7
BRANCH   4  15
HETATM   15  C   UNL     1     -44.402 -54.239  13.145  1.00  0.00     0.160 C 
BRANCH  15  16
HETATM   16  C   UNL     1     -45.677 -53.432  12.972  1.00  0.00     0.221 C 
HETATM   17  O   UNL     1     -45.957 -52.791  11.963  1.00  0.00    -0.273 OA
HETATM   18  N   UNL     1     -46.523 -53.412  14.043  1.00  0.00    -0.370 N 
HETATM   19  H   UNL     1     -46.384 -53.971  14.873  1.00  0.00     0.159 HD
HETATM   20  H   UNL     1     -47.396 -52.910  13.937  1.00  0.00     0.159 HD
ENDBRANCH  15  16
ENDBRANCH   4  15
TORSDOF 4
ENDMDL
MODEL 8
REMARK VINA RESULT:      -5.3      2.892      5.973
REMARK  4 active torsions:
REMARK  status: ('A' for Active; 'I' for Inactive)
REMARK    1  A    between atoms: C_2  and  C_5 
REMARK       I    between atoms: C_5  and  N_7 
REMARK    2  A    between atoms: N_7  and  C_8 
REMARK    3  A    between atoms: C_11  and  C_12 
REMARK    4  A    between atoms: C_12  and  C_13 
REMARK       I    between atoms: C_13  and  N_15 
ROOT
HETATM    1  C   UNL     1     -41.338 -49.131  11.206  1.00  0.00     0.151 A 
HETATM    2  N   UNL     1     -42.227 -48.521  10.447  1.00  0.00    -0.339 N 
ATOM      3  HN  UNL     1     -43.044 -48.963  10.027  1.00  0.00     0.168 HD
HETATM    4  C   UNL     1     -41.877 -47.171  10.306  1.00  0.00     0.026 A 
HETATM    5  C   UNL     1     -40.693 -46.821  10.932  1.00  0.00     0.078 A 
HETATM    6  S   UNL     1     -39.988 -48.187  11.657  1.00  0.00    -0.064 SA
ENDROOT
BRANCH   1   7
HETATM    7  N   UNL     1     -41.453 -50.462  11.573  1.00  0.00    -0.306 N 
HETATM    8  C   UNL     1     -42.223 -50.914  12.632  1.00  0.00     0.231 C 
HETATM    9  O   UNL     1     -42.912 -50.195  13.356  1.00  0.00    -0.272 OA
HETATM   10  H   UNL     1     -41.092 -51.107  10.888  1.00  0.00     0.171 HD
BRANCH   8  11
HETATM   11  C   UNL     1     -42.218 -52.443  12.873  1.00  0.00     0.030 C 
HETATM   12  C   UNL     1     -43.503 -53.030  12.248  1.00  0.00     0.025 C 
HETATM   13  C   UNL     1     -42.227 -52.763  14.374  1.00  0.00     0.025 C 
HETATM   14  C   UNL     1     -41.010 -53.103  12.199  1.00  0.00     0.025 C 
ENDBRANCH   8  11
ENDBRANCH   1   7
BRANCH   4  15
HETATM   15  C   UNL     1     -42.783 -46.226   9.585  1.00  0.00     0.160 C 
BRANCH  15  16
HETATM   16  C   UNL     1     -43.700 -46.938   8.607  1.00  0.00     0.221 C 
HETATM   17  O   UNL     1     -43.314 -47.714   7.737  1.00  0.00    -0.273 OA
HETATM   18  N   UNL     1     -45.029 -46.641   8.708  1.00  0.00    -0.370 N 
HETATM   19  H   UNL     1     -45.417 -46.067   9.443  1.00  0.00     0.159 HD
HETATM   20  H   UNL     1     -45.664 -47.132   8.090  1.00  0.00     0.159 HD
ENDBRANCH  15  16
ENDBRANCH   4  15
TORSDOF 4
ENDMDL
MODEL 9
REMARK VINA RESULT:      -5.2      2.430      6.229
REMARK  4 active torsions:
REMARK  status: ('A' for Active; 'I' for Inactive)
REMARK    1  A    between atoms: C_2  and  C_5 
REMARK       I    between atoms: C_5  and  N_7 
REMARK    2  A    between atoms: N_7  and  C_8 
REMARK    3  A    between atoms: C_11  and  C_12 
REMARK    4  A    between atoms: C_12  and  C_13 
REMARK       I    between atoms: C_13  and  N_15 
ROOT
HETATM    1  C   UNL     1     -40.455 -46.679  11.312  1.00  0.00     0.151 A 
HETATM    2  N   UNL     1     -41.443 -46.984  10.495  1.00  0.00    -0.339 N 
ATOM      3  HN  UNL     1     -41.627 -47.913  10.116  1.00  0.00     0.168 HD
HETATM    4  C   UNL     1     -42.203 -45.837  10.227  1.00  0.00     0.026 A 
HETATM    5  C   UNL     1     -41.722 -44.684  10.821  1.00  0.00     0.078 A 
HETATM    6  S   UNL     1     -40.292 -45.019  11.676  1.00  0.00    -0.064 SA
ENDROOT
BRANCH   1   7
HETATM    7  N   UNL     1     -39.569 -47.624  11.805  1.00  0.00    -0.306 N 
HETATM    8  C   UNL     1     -39.693 -48.988  11.598  1.00  0.00     0.231 C 
HETATM    9  O   UNL     1     -40.585 -49.521  10.937  1.00  0.00    -0.272 OA
HETATM   10  H   UNL     1     -38.711 -47.233  12.160  1.00  0.00     0.171 HD
BRANCH   8  11
HETATM   11  C   UNL     1     -38.594 -49.875  12.232  1.00  0.00     0.030 C 
HETATM   12  C   UNL     1     -37.999 -49.111  13.436  1.00  0.00     0.025 C 
HETATM   13  C   UNL     1     -37.462 -50.147  11.233  1.00  0.00     0.025 C 
HETATM   14  C   UNL     1     -39.179 -51.196  12.742  1.00  0.00     0.025 C 
ENDBRANCH   8  11
ENDBRANCH   1   7
BRANCH   4  15
HETATM   15  C   UNL     1     -43.455 -45.932   9.416  1.00  0.00     0.160 C 
BRANCH  15  16
HETATM   16  C   UNL     1     -43.769 -47.359   9.002  1.00  0.00     0.221 C 
HETATM   17  O   UNL     1     -43.233 -47.940   8.063  1.00  0.00    -0.273 OA
HETATM   18  N   UNL     1     -44.743 -47.990   9.722  1.00  0.00    -0.370 N 
HETATM   19  H   UNL     1     -45.172 -47.593  10.546  1.00  0.00     0.159 HD
HETATM   20  H   UNL     1     -44.943 -48.955   9.487  1.00  0.00     0.159 HD
ENDBRANCH  15  16
ENDBRANCH   4  15
TORSDOF 4
ENDMDL
