MODEL 1
REMARK VINA RESULT:      -6.1      0.000      0.000
REMARK  4 active torsions:
REMARK  status: ('A' for Active; 'I' for Inactive)
REMARK       I    between atoms: C_2  and  N_3 
REMARK       I    between atoms: C_2  and  N_13 
REMARK    1  A    between atoms: N_3  and  C_4 
REMARK    2  A    between atoms: C_4  and  C_5 
REMARK    3  A    between atoms: C_5  and  C_6 
REMARK    4  A    between atoms: N_16  and  C_19 
ROOT
HETATM    1  O   UNL     1     -43.146 -50.382  14.217  1.00  0.00    -0.247 OA
HETATM    2  C   UNL     1     -42.714 -50.191  13.082  1.00  0.00     0.318 C 
HETATM    3  N   UNL     1     -42.358 -51.229  12.255  1.00  0.00    -0.343 N 
HETATM    4  N   UNL     1     -42.595 -48.923  12.532  1.00  0.00    -0.331 N 
HETATM    5  C   UNL     1     -42.894 -47.809  13.434  1.00  0.00     0.158 C 
HETATM    6  C   UNL     1     -43.052 -46.455  12.730  1.00  0.00     0.293 C 
HETATM    7  N   UNL     1     -41.944 -46.108  11.811  1.00  0.00     0.096 N 
HETATM    8  C   UNL     1     -41.836 -47.189  10.825  1.00  0.00     0.293 C 
HETATM    9  C   UNL     1     -41.776 -48.632  11.352  1.00  0.00     0.158 C 
HETATM   10  H   UNL     1     -41.637 -51.033  11.583  1.00  0.00     0.164 HD
ENDROOT
BRANCH   3  11
HETATM   11  C   UNL     1     -42.422 -52.608  12.718  1.00  0.00     0.129 C 
BRANCH  11  12
HETATM   12  C   UNL     1     -43.545 -53.415  12.064  1.00  0.00     0.058 C 
BRANCH  12  13
HETATM   13  C   UNL     1     -44.765 -53.511  12.942  1.00  0.00    -0.054 A 
HETATM   14  C   UNL     1     -45.034 -54.682  13.656  1.00  0.00     0.024 A 
HETATM   15  C   UNL     1     -46.159 -54.725  14.464  1.00  0.00     0.088 A 
HETATM   16  N   UNL     1     -47.025 -53.699  14.600  1.00  0.00    -0.375 N 
HETATM   17  C   UNL     1     -46.750 -52.579  13.898  1.00  0.00     0.088 A 
ATOM     18  HN  UNL     1     -47.845 -53.766  15.202  1.00  0.00     0.164 HD
HETATM   19  C   UNL     1     -45.651 -52.439  13.063  1.00  0.00     0.024 A 
ENDBRANCH  12  13
ENDBRANCH  11  12
ENDBRANCH   3  11
BRANCH   7  20
HETATM   20  C   UNL     1     -40.717 -45.741  12.529  1.00  0.00     0.227 C 
HETATM   21  C   UNL     1     -41.030 -44.679  13.625  1.00  0.00     0.041 C 
HETATM   22  C   UNL     1     -40.086 -43.521  13.287  1.00  0.00    -0.012 C 
HETATM   23  C   UNL     1     -40.555 -42.868  11.971  1.00  0.00     0.005 C 
HETATM   24  C   UNL     1     -38.834 -44.280  12.863  1.00  0.00     0.011 C 
HETATM   25  C   UNL     1     -40.063 -43.852  10.904  1.00  0.00     0.007 C 
HETATM   26  C   UNL     1     -39.563 -45.039  11.742  1.00  0.00     0.019 C 
ENDBRANCH   7  20
TORSDOF 4
ENDMDL
MODEL 2
REMARK VINA RESULT:      -6.1      2.034      2.769
REMARK  4 active torsions:
REMARK  status: ('A' for Active; 'I' for Inactive)
REMARK       I    between atoms: C_2  and  N_3 
REMARK       I    between atoms: C_2  and  N_13 
REMARK    1  A    between atoms: N_3  and  C_4 
REMARK    2  A    between atoms: C_4  and  C_5 
REMARK    3  A    between atoms: C_5  and  C_6 
REMARK    4  A    between atoms: N_16  and  C_19 
ROOT
HETATM    1  O   UNL     1     -39.424 -52.253  12.964  1.00  0.00    -0.247 OA
HETATM    2  C   UNL     1     -40.242 -51.626  13.636  1.00  0.00     0.318 C 
HETATM    3  N   UNL     1     -41.195 -52.258  14.397  1.00  0.00    -0.343 N 
HETATM    4  N   UNL     1     -40.237 -50.241  13.715  1.00  0.00    -0.331 N 
HETATM    5  C   UNL     1     -39.279 -49.558  12.844  1.00  0.00     0.158 C 
HETATM    6  C   UNL     1     -39.081 -48.071  13.168  1.00  0.00     0.293 C 
HETATM    7  N   UNL     1     -40.338 -47.296  13.281  1.00  0.00     0.096 N 
HETATM    8  C   UNL     1     -41.162 -47.942  14.310  1.00  0.00     0.293 C 
HETATM    9  C   UNL     1     -41.377 -49.460  14.203  1.00  0.00     0.158 C 
HETATM   10  H   UNL     1     -42.053 -51.755  14.539  1.00  0.00     0.164 HD
ENDROOT
BRANCH   3  11
HETATM   11  C   UNL     1     -41.314 -53.708  14.390  1.00  0.00     0.129 C 
BRANCH  11  12
HETATM   12  C   UNL     1     -42.087 -54.249  13.185  1.00  0.00     0.058 C 
BRANCH  12  13
HETATM   13  C   UNL     1     -43.574 -54.052  13.325  1.00  0.00    -0.054 A 
HETATM   14  C   UNL     1     -44.307 -54.826  14.229  1.00  0.00     0.024 A 
HETATM   15  C   UNL     1     -45.671 -54.605  14.339  1.00  0.00     0.088 A 
HETATM   16  N   UNL     1     -46.344 -53.686  13.615  1.00  0.00    -0.375 N 
HETATM   17  C   UNL     1     -45.617 -52.952  12.744  1.00  0.00     0.088 A 
ATOM     18  HN  UNL     1     -47.349 -53.552  13.719  1.00  0.00     0.164 HD
HETATM   19  C   UNL     1     -44.250 -53.099  12.561  1.00  0.00     0.024 A 
ENDBRANCH  12  13
ENDBRANCH  11  12
ENDBRANCH   3  11
BRANCH   7  20
HETATM   20  C   UNL     1     -40.970 -47.064  11.976  1.00  0.00     0.227 C 
HETATM   21  C   UNL     1     -39.945 -46.435  10.985  1.00  0.00     0.041 C 
HETATM   22  C   UNL     1     -40.636 -45.147  10.521  1.00  0.00    -0.012 C 
HETATM   23  C   UNL     1     -40.688 -44.159  11.703  1.00  0.00     0.005 C 
HETATM   24  C   UNL     1     -42.081 -45.618  10.407  1.00  0.00     0.011 C 
HETATM   25  C   UNL     1     -41.832 -44.709  12.561  1.00  0.00     0.007 C 
HETATM   26  C   UNL     1     -42.154 -46.048  11.881  1.00  0.00     0.019 C 
ENDBRANCH   7  20
TORSDOF 4
ENDMDL
MODEL 3
REMARK VINA RESULT:      -6.0      3.647      8.315
REMARK  4 active torsions:
REMARK  status: ('A' for Active; 'I' for Inactive)
REMARK       I    between atoms: C_2  and  N_3 
REMARK       I    between atoms: C_2  and  N_13 
REMARK    1  A    between atoms: N_3  and  C_4 
REMARK    2  A    between atoms: C_4  and  C_5 
REMARK    3  A    between atoms: C_5  and  C_6 
REMARK    4  A    between atoms: N_16  and  C_19 
ROOT
HETATM    1  O   UNL     1     -38.855 -52.766  13.916  1.00  0.00    -0.247 OA
HETATM    2  C   UNL     1     -39.675 -52.261  13.152  1.00  0.00     0.318 C 
HETATM    3  N   UNL     1     -39.316 -51.319  12.219  1.00  0.00    -0.343 N 
HETATM    4  N   UNL     1     -41.012 -52.633  13.141  1.00  0.00    -0.331 N 
HETATM    5  C   UNL     1     -41.419 -53.575  14.185  1.00  0.00     0.158 C 
HETATM    6  C   UNL     1     -42.804 -54.198  13.967  1.00  0.00     0.293 C 
HETATM    7  N   UNL     1     -43.880 -53.219  13.691  1.00  0.00     0.096 N 
HETATM    8  C   UNL     1     -43.475 -52.441  12.513  1.00  0.00     0.293 C 
HETATM    9  C   UNL     1     -42.065 -51.830  12.512  1.00  0.00     0.158 C 
HETATM   10  H   UNL     1     -40.026 -50.655  11.965  1.00  0.00     0.164 HD
ENDROOT
BRANCH   3  11
HETATM   11  C   UNL     1     -37.947 -50.833  12.138  1.00  0.00     0.129 C 
BRANCH  11  12
HETATM   12  C   UNL     1     -37.836 -49.311  12.245  1.00  0.00     0.058 C 
BRANCH  12  13
HETATM   13  C   UNL     1     -37.829 -48.838  13.676  1.00  0.00    -0.054 A 
HETATM   14  C   UNL     1     -38.369 -47.594  14.013  1.00  0.00     0.024 A 
HETATM   15  C   UNL     1     -38.356 -47.203  15.343  1.00  0.00     0.088 A 
HETATM   16  N   UNL     1     -37.842 -47.952  16.341  1.00  0.00    -0.375 N 
HETATM   17  C   UNL     1     -37.320 -49.148  15.992  1.00  0.00     0.088 A 
ATOM     18  HN  UNL     1     -37.846 -47.630  17.309  1.00  0.00     0.164 HD
HETATM   19  C   UNL     1     -37.286 -49.627  14.692  1.00  0.00     0.024 A 
ENDBRANCH  12  13
ENDBRANCH  11  12
ENDBRANCH   3  11
BRANCH   7  20
HETATM   20  C   UNL     1     -44.264 -52.458  14.886  1.00  0.00     0.227 C 
HETATM   21  C   UNL     1     -45.070 -53.363  15.865  1.00  0.00     0.041 C 
HETATM   22  C   UNL     1     -46.378 -52.592  16.075  1.00  0.00    -0.012 C 
HETATM   23  C   UNL     1     -47.188 -52.623  14.764  1.00  0.00     0.005 C 
HETATM   24  C   UNL     1     -45.865 -51.158  16.125  1.00  0.00     0.011 C 
HETATM   25  C   UNL     1     -46.474 -51.583  13.894  1.00  0.00     0.007 C 
HETATM   26  C   UNL     1     -45.230 -51.240  14.727  1.00  0.00     0.019 C 
ENDBRANCH   7  20
TORSDOF 4
ENDMDL
MODEL 4
REMARK VINA RESULT:      -6.0      2.784      8.262
REMARK  4 active torsions:
REMARK  status: ('A' for Active; 'I' for Inactive)
REMARK       I    between atoms: C_2  and  N_3 
REMARK       I    between atoms: C_2  and  N_13 
REMARK    1  A    between atoms: N_3  and  C_4 
REMARK    2  A    between atoms: C_4  and  C_5 
REMARK    3  A    between atoms: C_5  and  C_6 
REMARK    4  A    between atoms: N_16  and  C_19 
ROOT
HETATM    1  O   UNL     1     -39.322 -50.311  15.138  1.00  0.00    -0.247 OA
HETATM    2  C   UNL     1     -39.450 -51.345  14.486  1.00  0.00     0.318 C 
HETATM    3  N   UNL     1     -38.553 -51.706  13.510  1.00  0.00    -0.343 N 
HETATM    4  N   UNL     1     -40.479 -52.247  14.713  1.00  0.00    -0.331 N 
HETATM    5  C   UNL     1     -41.485 -51.831  15.692  1.00  0.00     0.158 C 
HETATM    6  C   UNL     1     -42.426 -52.955  16.145  1.00  0.00     0.293 C 
HETATM    7  N   UNL     1     -43.050 -53.716  15.039  1.00  0.00     0.096 N 
HETATM    8  C   UNL     1     -41.966 -54.257  14.210  1.00  0.00     0.293 C 
HETATM    9  C   UNL     1     -40.866 -53.285  13.753  1.00  0.00     0.158 C 
HETATM   10  H   UNL     1     -38.918 -52.260  12.756  1.00  0.00     0.164 HD
ENDROOT
BRANCH   3  11
HETATM   11  C   UNL     1     -37.436 -50.839  13.165  1.00  0.00     0.129 C 
BRANCH  11  12
HETATM   12  C   UNL     1     -37.628 -50.101  11.839  1.00  0.00     0.058 C 
BRANCH  12  13
HETATM   13  C   UNL     1     -38.888 -49.276  11.822  1.00  0.00    -0.054 A 
HETATM   14  C   UNL     1     -38.951 -48.066  12.519  1.00  0.00     0.024 A 
HETATM   15  C   UNL     1     -40.124 -47.330  12.466  1.00  0.00     0.088 A 
HETATM   16  N   UNL     1     -41.223 -47.715  11.785  1.00  0.00    -0.375 N 
HETATM   17  C   UNL     1     -41.142 -48.889  11.122  1.00  0.00     0.088 A 
ATOM     18  HN  UNL     1     -42.071 -47.149  11.771  1.00  0.00     0.164 HD
HETATM   19  C   UNL     1     -40.016 -49.697  11.115  1.00  0.00     0.024 A 
ENDBRANCH  12  13
ENDBRANCH  11  12
ENDBRANCH   3  11
BRANCH   7  20
HETATM   20  C   UNL     1     -44.090 -52.944  14.347  1.00  0.00     0.227 C 
HETATM   21  C   UNL     1     -45.196 -52.507  15.353  1.00  0.00     0.041 C 
HETATM   22  C   UNL     1     -46.485 -53.059  14.735  1.00  0.00    -0.012 C 
HETATM   23  C   UNL     1     -46.461 -54.598  14.831  1.00  0.00     0.005 C 
HETATM   24  C   UNL     1     -46.229 -52.807  13.254  1.00  0.00     0.011 C 
HETATM   25  C   UNL     1     -45.504 -54.998  13.703  1.00  0.00     0.007 C 
HETATM   26  C   UNL     1     -44.941 -53.646  13.240  1.00  0.00     0.019 C 
ENDBRANCH   7  20
TORSDOF 4
ENDMDL
MODEL 5
REMARK VINA RESULT:      -5.9      3.582      8.472
REMARK  4 active torsions:
REMARK  status: ('A' for Active; 'I' for Inactive)
REMARK       I    between atoms: C_2  and  N_3 
REMARK       I    between atoms: C_2  and  N_13 
REMARK    1  A    between atoms: N_3  and  C_4 
REMARK    2  A    between atoms: C_4  and  C_5 
REMARK    3  A    between atoms: C_5  and  C_6 
REMARK    4  A    between atoms: N_16  and  C_19 
ROOT
HETATM    1  O   UNL     1     -39.365 -49.646  12.455  1.00  0.00    -0.247 OA
HETATM    2  C   UNL     1     -40.297 -50.394  12.164  1.00  0.00     0.318 C 
HETATM    3  N   UNL     1     -41.270 -50.028  11.266  1.00  0.00    -0.343 N 
HETATM    4  N   UNL     1     -40.413 -51.676  12.680  1.00  0.00    -0.331 N 
HETATM    5  C   UNL     1     -39.427 -52.044  13.698  1.00  0.00     0.158 C 
HETATM    6  C   UNL     1     -39.386 -53.542  14.024  1.00  0.00     0.293 C 
HETATM    7  N   UNL     1     -40.706 -54.140  14.328  1.00  0.00     0.096 N 
HETATM    8  C   UNL     1     -41.579 -53.889  13.174  1.00  0.00     0.293 C 
HETATM    9  C   UNL     1     -41.657 -52.450  12.640  1.00  0.00     0.158 C 
HETATM   10  H   UNL     1     -42.176 -50.440  11.403  1.00  0.00     0.164 HD
ENDROOT
BRANCH   3  11
HETATM   11  C   UNL     1     -41.270 -48.704  10.664  1.00  0.00     0.129 C 
BRANCH  11  12
HETATM   12  C   UNL     1     -42.169 -47.704  11.394  1.00  0.00     0.058 C 
BRANCH  12  13
HETATM   13  C   UNL     1     -43.215 -47.109  10.488  1.00  0.00    -0.054 A 
HETATM   14  C   UNL     1     -44.381 -47.820  10.190  1.00  0.00     0.024 A 
HETATM   15  C   UNL     1     -45.325 -47.231   9.363  1.00  0.00     0.088 A 
HETATM   16  N   UNL     1     -45.183 -46.006   8.815  1.00  0.00    -0.375 N 
HETATM   17  C   UNL     1     -44.047 -45.339   9.112  1.00  0.00     0.088 A 
ATOM     18  HN  UNL     1     -45.898 -45.605   8.208  1.00  0.00     0.164 HD
HETATM   19  C   UNL     1     -43.045 -45.842   9.927  1.00  0.00     0.024 A 
ENDBRANCH  12  13
ENDBRANCH  11  12
ENDBRANCH   3  11
BRANCH   7  20
HETATM   20  C   UNL     1     -41.215 -53.733  15.644  1.00  0.00     0.227 C 
HETATM   21  C   UNL     1     -40.155 -54.029  16.746  1.00  0.00     0.041 C 
HETATM   22  C   UNL     1     -40.910 -54.910  17.746  1.00  0.00    -0.012 C 
HETATM   23  C   UNL     1     -41.181 -56.280  17.093  1.00  0.00     0.005 C 
HETATM   24  C   UNL     1     -42.285 -54.251  17.735  1.00  0.00     0.011 C 
HETATM   25  C   UNL     1     -42.354 -55.987  16.151  1.00  0.00     0.007 C 
HETATM   26  C   UNL     1     -42.473 -54.457  16.224  1.00  0.00     0.019 C 
ENDBRANCH   7  20
TORSDOF 4
ENDMDL
MODEL 6
REMARK VINA RESULT:      -5.9      3.750      5.515
REMARK  4 active torsions:
REMARK  status: ('A' for Active; 'I' for Inactive)
REMARK       I    between atoms: C_2  and  N_3 
REMARK       I    between atoms: C_2  and  N_13 
REMARK    1  A    between atoms: N_3  and  C_4 
REMARK    2  A    between atoms: C_4  and  C_5 
REMARK    3  A    between atoms: C_5  and  C_6 
REMARK    4  A    between atoms: N_16  and  C_19 
ROOT
HETATM    1  O   UNL     1     -45.141 -52.526  12.597  1.00  0.00    -0.247 OA
HETATM    2  C   UNL     1     -44.419 -52.766  13.564  1.00  0.00     0.318 C 
HETATM    3  N   UNL     1     -44.936 -53.086  14.795  1.00  0.00    -0.343 N 
HETATM    4  N   UNL     1     -43.035 -52.778  13.476  1.00  0.00    -0.331 N 
HETATM    5  C   UNL     1     -42.475 -52.358  12.190  1.00  0.00     0.158 C 
HETATM    6  C   UNL     1     -40.982 -52.669  12.021  1.00  0.00     0.293 C 
HETATM    7  N   UNL     1     -40.130 -52.212  13.142  1.00  0.00     0.096 N 
HETATM    8  C   UNL     1     -40.647 -52.830  14.369  1.00  0.00     0.293 C 
HETATM    9  C   UNL     1     -42.154 -52.710  14.646  1.00  0.00     0.158 C 
HETATM   10  H   UNL     1     -44.375 -52.834  15.590  1.00  0.00     0.164 HD
ENDROOT
BRANCH   3  11
HETATM   11  C   UNL     1     -46.374 -53.095  15.022  1.00  0.00     0.129 C 
BRANCH  11  12
HETATM   12  C   UNL     1     -46.929 -51.734  15.449  1.00  0.00     0.058 C 
BRANCH  12  13
HETATM   13  C   UNL     1     -47.254 -51.687  16.920  1.00  0.00    -0.054 A 
HETATM   14  C   UNL     1     -46.632 -52.567  17.811  1.00  0.00     0.024 A 
HETATM   15  C   UNL     1     -46.948 -52.482  19.158  1.00  0.00     0.088 A 
HETATM   16  N   UNL     1     -47.834 -51.600  19.667  1.00  0.00    -0.375 N 
HETATM   17  C   UNL     1     -48.427 -50.763  18.788  1.00  0.00     0.088 A 
ATOM     18  HN  UNL     1     -48.045 -51.568  20.664  1.00  0.00     0.164 HD
HETATM   19  C   UNL     1     -48.178 -50.771  17.424  1.00  0.00     0.024 A 
ENDBRANCH  12  13
ENDBRANCH  11  12
ENDBRANCH   3  11
BRANCH   7  20
HETATM   20  C   UNL     1     -39.960 -50.753  13.156  1.00  0.00     0.227 C 
HETATM   21  C   UNL     1     -39.897 -50.204  11.700  1.00  0.00     0.041 C 
HETATM   22  C   UNL     1     -38.571 -49.438  11.660  1.00  0.00    -0.012 C 
HETATM   23  C   UNL     1     -37.411 -50.451  11.741  1.00  0.00     0.005 C 
HETATM   24  C   UNL     1     -38.561 -48.799  13.043  1.00  0.00     0.011 C 
HETATM   25  C   UNL     1     -37.387 -50.828  13.226  1.00  0.00     0.007 C 
HETATM   26  C   UNL     1     -38.654 -50.151  13.769  1.00  0.00     0.019 C 
ENDBRANCH   7  20
TORSDOF 4
ENDMDL
MODEL 7
REMARK VINA RESULT:      -5.8      2.306      2.989
REMARK  4 active torsions:
REMARK  status: ('A' for Active; 'I' for Inactive)
REMARK       I    between atoms: C_2  and  N_3 
REMARK       I    between atoms: C_2  and  N_13 
REMARK    1  A    between atoms: N_3  and  C_4 
REMARK    2  A    between atoms: C_4  and  C_5 
REMARK    3  A    between atoms: C_5  and  C_6 
REMARK    4  A    between atoms: N_16  and  C_19 
ROOT
HETATM    1  O   UNL     1     -42.812 -50.666  13.774  1.00  0.00    -0.247 OA
HETATM    2  C   UNL     1     -42.398 -50.359  12.657  1.00  0.00     0.318 C 
HETATM    3  N   UNL     1     -41.948 -51.301  11.764  1.00  0.00    -0.343 N 
HETATM    4  N   UNL     1     -42.396 -49.051  12.196  1.00  0.00    -0.331 N 
HETATM    5  C   UNL     1     -42.796 -48.033  13.170  1.00  0.00     0.158 C 
HETATM    6  C   UNL     1     -43.078 -46.653  12.559  1.00  0.00     0.293 C 
HETATM    7  N   UNL     1     -42.006 -46.144  11.674  1.00  0.00     0.096 N 
HETATM    8  C   UNL     1     -41.799 -47.141  10.616  1.00  0.00     0.293 C 
HETATM    9  C   UNL     1     -41.607 -48.605  11.044  1.00  0.00     0.158 C 
HETATM   10  H   UNL     1     -41.248 -50.994  11.112  1.00  0.00     0.164 HD
ENDROOT
BRANCH   3  11
HETATM   11  C   UNL     1     -41.886 -52.708  12.131  1.00  0.00     0.129 C 
BRANCH  11  12
HETATM   12  C   UNL     1     -40.490 -53.163  12.558  1.00  0.00     0.058 C 
BRANCH  12  13
HETATM   13  C   UNL     1     -40.516 -53.967  13.832  1.00  0.00    -0.054 A 
HETATM   14  C   UNL     1     -39.334 -54.488  14.365  1.00  0.00     0.024 A 
HETATM   15  C   UNL     1     -39.400 -55.209  15.547  1.00  0.00     0.088 A 
HETATM   16  N   UNL     1     -40.546 -55.450  16.217  1.00  0.00    -0.375 N 
HETATM   17  C   UNL     1     -41.677 -54.941  15.682  1.00  0.00     0.088 A 
ATOM     18  HN  UNL     1     -40.557 -55.988  17.083  1.00  0.00     0.164 HD
HETATM   19  C   UNL     1     -41.715 -54.208  14.506  1.00  0.00     0.024 A 
ENDBRANCH  12  13
ENDBRANCH  11  12
ENDBRANCH   3  11
BRANCH   7  20
HETATM   20  C   UNL     1     -40.818 -45.717  12.423  1.00  0.00     0.227 C 
HETATM   21  C   UNL     1     -41.188 -44.573  13.413  1.00  0.00     0.041 C 
HETATM   22  C   UNL     1     -40.227 -43.441  13.033  1.00  0.00    -0.012 C 
HETATM   23  C   UNL     1     -40.625 -42.897  11.647  1.00  0.00     0.005 C 
HETATM   24  C   UNL     1     -38.954 -44.227  12.736  1.00  0.00     0.011 C 
HETATM   25  C   UNL     1     -40.080 -43.961  10.689  1.00  0.00     0.007 C 
HETATM   26  C   UNL     1     -39.624 -45.075  11.643  1.00  0.00     0.019 C 
ENDBRANCH   7  20
TORSDOF 4
ENDMDL
MODEL 8
REMARK VINA RESULT:      -5.8      2.965      7.590
REMARK  4 active torsions:
REMARK  status: ('A' for Active; 'I' for Inactive)
REMARK       I    between atoms: C_2  and  N_3 
REMARK       I    between atoms: C_2  and  N_13 
REMARK    1  A    between atoms: N_3  and  C_4 
REMARK    2  A    between atoms: C_4  and  C_5 
REMARK    3  A    between atoms: C_5  and  C_6 
REMARK    4  A    between atoms: N_16  and  C_19 
ROOT
HETATM    1  O   UNL     1     -39.367 -46.877  13.130  1.00  0.00    -0.247 OA
HETATM    2  C   UNL     1     -39.728 -47.687  12.278  1.00  0.00     0.318 C 
HETATM    3  N   UNL     1     -40.054 -47.301  11.000  1.00  0.00    -0.343 N 
HETATM    4  N   UNL     1     -39.790 -49.051  12.523  1.00  0.00    -0.331 N 
HETATM    5  C   UNL     1     -39.524 -49.461  13.904  1.00  0.00     0.158 C 
HETATM    6  C   UNL     1     -39.299 -50.969  14.081  1.00  0.00     0.293 C 
HETATM    7  N   UNL     1     -40.344 -51.821  13.469  1.00  0.00     0.096 N 
HETATM    8  C   UNL     1     -40.414 -51.476  12.043  1.00  0.00     0.293 C 
HETATM    9  C   UNL     1     -40.532 -49.988  11.675  1.00  0.00     0.158 C 
HETATM   10  H   UNL     1     -40.729 -47.873  10.524  1.00  0.00     0.164 HD
ENDROOT
BRANCH   3  11
HETATM   11  C   UNL     1     -40.042 -45.897  10.619  1.00  0.00     0.129 C 
BRANCH  11  12
HETATM   12  C   UNL     1     -41.408 -45.221  10.751  1.00  0.00     0.058 C 
BRANCH  12  13
HETATM   13  C   UNL     1     -42.534 -46.116  10.302  1.00  0.00    -0.054 A 
HETATM   14  C   UNL     1     -42.965 -46.098   8.973  1.00  0.00     0.024 A 
HETATM   15  C   UNL     1     -43.994 -46.948   8.597  1.00  0.00     0.088 A 
HETATM   16  N   UNL     1     -44.618 -47.793   9.444  1.00  0.00    -0.375 N 
HETATM   17  C   UNL     1     -44.189 -47.791  10.725  1.00  0.00     0.088 A 
ATOM     18  HN  UNL     1     -45.374 -48.402   9.133  1.00  0.00     0.164 HD
HETATM   19  C   UNL     1     -43.169 -46.979  11.197  1.00  0.00     0.024 A 
ENDBRANCH  12  13
ENDBRANCH  11  12
ENDBRANCH   3  11
BRANCH   7  20
HETATM   20  C   UNL     1     -41.605 -51.786  14.221  1.00  0.00     0.227 C 
HETATM   21  C   UNL     1     -41.367 -52.243  15.691  1.00  0.00     0.041 C 
HETATM   22  C   UNL     1     -42.354 -53.401  15.873  1.00  0.00    -0.012 C 
HETATM   23  C   UNL     1     -41.882 -54.593  15.018  1.00  0.00     0.005 C 
HETATM   24  C   UNL     1     -43.559 -52.881  15.098  1.00  0.00     0.011 C 
HETATM   25  C   UNL     1     -42.301 -54.187  13.601  1.00  0.00     0.007 C 
HETATM   26  C   UNL     1     -42.768 -52.736  13.788  1.00  0.00     0.019 C 
ENDBRANCH   7  20
TORSDOF 4
ENDMDL
MODEL 9
REMARK VINA RESULT:      -5.8      3.468      8.057
REMARK  4 active torsions:
REMARK  status: ('A' for Active; 'I' for Inactive)
REMARK       I    between atoms: C_2  and  N_3 
REMARK       I    between atoms: C_2  and  N_13 
REMARK    1  A    between atoms: N_3  and  C_4 
REMARK    2  A    between atoms: C_4  and  C_5 
REMARK    3  A    between atoms: C_5  and  C_6 
REMARK    4  A    between atoms: N_16  and  C_19 
ROOT
HETATM    1  O   UNL     1     -40.131 -49.197  17.071  1.00  0.00    -0.247 OA
HETATM    2  C   UNL     1     -40.011 -50.138  16.288  1.00  0.00     0.318 C 
HETATM    3  N   UNL     1     -38.848 -50.359  15.590  1.00  0.00    -0.343 N 
HETATM    4  N   UNL     1     -41.016 -51.072  16.084  1.00  0.00    -0.331 N 
HETATM    5  C   UNL     1     -42.285 -50.799  16.761  1.00  0.00     0.158 C 
HETATM    6  C   UNL     1     -43.263 -51.981  16.769  1.00  0.00     0.293 C 
HETATM    7  N   UNL     1     -43.494 -52.595  15.442  1.00  0.00     0.096 N 
HETATM    8  C   UNL     1     -42.188 -53.012  14.916  1.00  0.00     0.293 C 
HETATM    9  C   UNL     1     -41.050 -51.978  14.932  1.00  0.00     0.158 C 
HETATM   10  H   UNL     1     -38.947 -50.812  14.698  1.00  0.00     0.164 HD
ENDROOT
BRANCH   3  11
HETATM   11  C   UNL     1     -37.723 -49.443  15.705  1.00  0.00     0.129 C 
BRANCH  11  12
HETATM   12  C   UNL     1     -37.728 -48.339  14.646  1.00  0.00     0.058 C 
BRANCH  12  13
HETATM   13  C   UNL     1     -38.240 -48.828  13.315  1.00  0.00    -0.054 A 
HETATM   14  C   UNL     1     -37.438 -49.632  12.501  1.00  0.00     0.024 A 
HETATM   15  C   UNL     1     -37.951 -50.073  11.291  1.00  0.00     0.088 A 
HETATM   16  N   UNL     1     -39.185 -49.763  10.841  1.00  0.00    -0.375 N 
HETATM   17  C   UNL     1     -39.941 -48.980  11.641  1.00  0.00     0.088 A 
ATOM     18  HN  UNL     1     -39.529 -50.102   9.943  1.00  0.00     0.164 HD
HETATM   19  C   UNL     1     -39.518 -48.489  12.867  1.00  0.00     0.024 A 
ENDBRANCH  12  13
ENDBRANCH  11  12
ENDBRANCH   3  11
BRANCH   7  20
HETATM   20  C   UNL     1     -44.319 -51.748  14.570  1.00  0.00     0.227 C 
HETATM   21  C   UNL     1     -45.550 -51.206  15.355  1.00  0.00     0.041 C 
HETATM   22  C   UNL     1     -46.745 -51.657  14.509  1.00  0.00    -0.012 C 
HETATM   23  C   UNL     1     -46.870 -53.190  14.605  1.00  0.00     0.005 C 
HETATM   24  C   UNL     1     -46.200 -51.448  13.101  1.00  0.00     0.011 C 
HETATM   25  C   UNL     1     -45.759 -53.686  13.674  1.00  0.00     0.007 C 
HETATM   26  C   UNL     1     -45.008 -52.393  13.324  1.00  0.00     0.019 C 
ENDBRANCH   7  20
TORSDOF 4
ENDMDL
