MODEL 1
REMARK VINA RESULT:      -5.6      0.000      0.000
REMARK  7 active torsions:
REMARK  status: ('A' for Active; 'I' for Inactive)
REMARK    1  A    between atoms: N_2  and  C_3 
REMARK    2  A    between atoms: N_2  and  C_17 
REMARK    3  A    between atoms: C_3  and  C_4 
REMARK    4  A    between atoms: C_4  and  O_5 
REMARK    5  A    between atoms: C_4  and  C_6 
REMARK    6  A    between atoms: C_6  and  N_7 
REMARK    7  A    between atoms: C_17  and  C_18 
ROOT
HETATM    1  C   UNL     1     -41.428 -51.256  11.968  1.00  0.00     0.164 C 
ENDROOT
BRANCH   1   2
HETATM    2  C   UNL     1     -41.336 -50.552  13.349  1.00  0.00     0.305 C 
BRANCH   2   3
HETATM    3  N   UNL     1     -42.603 -50.045  13.931  1.00  0.00     0.090 N 
HETATM    4  C   UNL     1     -42.438 -48.606  14.200  1.00  0.00     0.310 C 
BRANCH   3   5
HETATM    5  C   UNL     1     -42.949 -50.780  15.169  1.00  0.00     0.310 C 
BRANCH   5   6
HETATM    6  C   UNL     1     -44.394 -51.234  15.266  1.00  0.00    -0.030 A 
HETATM    7  C   UNL     1     -44.877 -51.883  16.412  1.00  0.00     0.009 A 
HETATM    8  C   UNL     1     -46.206 -52.309  16.481  1.00  0.00     0.001 A 
HETATM    9  C   UNL     1     -47.070 -52.079  15.411  1.00  0.00     0.000 A 
HETATM   10  C   UNL     1     -46.612 -51.413  14.277  1.00  0.00     0.001 A 
HETATM   11  C   UNL     1     -45.282 -50.990  14.205  1.00  0.00     0.009 A 
ENDBRANCH   5   6
ENDBRANCH   3   5
ENDBRANCH   2   3
ENDBRANCH   1   2
BRANCH   1  12
HETATM   12  O   UNL     1     -40.738 -50.506  10.963  1.00  0.00    -0.392 OA
HETATM   13  H   UNL     1     -41.024 -50.820  10.087  1.00  0.00     0.210 HD
ENDBRANCH   1  12
BRANCH   1  14
HETATM   14  C   UNL     1     -40.794 -52.650  12.083  1.00  0.00     0.163 C 
BRANCH  14  15
HETATM   15  N   UNL     1     -41.357 -53.449  13.152  1.00  0.00    -0.339 N 
HETATM   16  C   UNL     1     -40.678 -53.852  14.270  1.00  0.00     0.184 A 
HETATM   17  N   UNL     1     -41.457 -54.504  15.102  1.00  0.00    -0.350 N 
HETATM   18  C   UNL     1     -42.685 -54.539  14.486  1.00  0.00     0.060 A 
ATOM     19  HN  UNL     1     -41.205 -54.898  16.009  1.00  0.00     0.166 HD
HETATM   20  C   UNL     1     -43.883 -55.125  14.931  1.00  0.00     0.032 A 
HETATM   21  C   UNL     1     -42.659 -53.874  13.262  1.00  0.00     0.062 A 
HETATM   22  C   UNL     1     -45.018 -55.024  14.122  1.00  0.00     0.002 A 
HETATM   23  C   UNL     1     -44.970 -54.353  12.897  1.00  0.00     0.002 A 
HETATM   24  C   UNL     1     -43.785 -53.760  12.441  1.00  0.00     0.032 A 
ENDBRANCH  14  15
ENDBRANCH   1  14
TORSDOF 7
ENDMDL
MODEL 2
REMARK VINA RESULT:      -5.4      3.424      5.934
REMARK  7 active torsions:
REMARK  status: ('A' for Active; 'I' for Inactive)
REMARK    1  A    between atoms: N_2  and  C_3 
REMARK    2  A    between atoms: N_2  and  C_17 
REMARK    3  A    between atoms: C_3  and  C_4 
REMARK    4  A    between atoms: C_4  and  O_5 
REMARK    5  A    between atoms: C_4  and  C_6 
REMARK    6  A    between atoms: C_6  and  N_7 
REMARK    7  A    between atoms: C_17  and  C_18 
ROOT
HETATM    1  C   UNL     1     -40.015 -49.573  11.491  1.00  0.00     0.164 C 
ENDROOT
BRANCH   1   2
HETATM    2  C   UNL     1     -39.815 -50.786  12.439  1.00  0.00     0.305 C 
BRANCH   2   3
HETATM    3  N   UNL     1     -40.984 -51.210  13.246  1.00  0.00     0.090 N 
HETATM    4  C   UNL     1     -40.489 -51.703  14.544  1.00  0.00     0.310 C 
BRANCH   3   5
HETATM    5  C   UNL     1     -41.764 -52.254  12.544  1.00  0.00     0.310 C 
BRANCH   5   6
HETATM    6  C   UNL     1     -43.262 -52.211  12.786  1.00  0.00    -0.030 A 
HETATM    7  C   UNL     1     -43.885 -51.056  13.280  1.00  0.00     0.009 A 
HETATM    8  C   UNL     1     -45.263 -51.036  13.511  1.00  0.00     0.001 A 
HETATM    9  C   UNL     1     -46.035 -52.164  13.239  1.00  0.00     0.000 A 
HETATM   10  C   UNL     1     -45.434 -53.310  12.724  1.00  0.00     0.001 A 
HETATM   11  C   UNL     1     -44.056 -53.333  12.495  1.00  0.00     0.009 A 
ENDBRANCH   5   6
ENDBRANCH   3   5
ENDBRANCH   2   3
ENDBRANCH   1   2
BRANCH   1  12
HETATM   12  O   UNL     1     -40.434 -50.002  10.191  1.00  0.00    -0.392 OA
HETATM   13  H   UNL     1     -39.727 -49.801   9.552  1.00  0.00     0.210 HD
ENDBRANCH   1  12
BRANCH   1  14
HETATM   14  C   UNL     1     -41.088 -48.651  12.090  1.00  0.00     0.163 C 
BRANCH  14  15
HETATM   15  N   UNL     1     -41.437 -47.543  11.226  1.00  0.00    -0.339 N 
HETATM   16  C   UNL     1     -40.583 -46.539  10.857  1.00  0.00     0.184 A 
HETATM   17  N   UNL     1     -41.148 -45.707  10.013  1.00  0.00    -0.350 N 
HETATM   18  C   UNL     1     -42.426 -46.184   9.845  1.00  0.00     0.060 A 
ATOM     19  HN  UNL     1     -40.729 -44.886   9.575  1.00  0.00     0.166 HD
HETATM   20  C   UNL     1     -43.468 -45.667   9.056  1.00  0.00     0.032 A 
HETATM   21  C   UNL     1     -42.637 -47.344  10.587  1.00  0.00     0.062 A 
HETATM   22  C   UNL     1     -44.694 -46.338   9.042  1.00  0.00     0.002 A 
HETATM   23  C   UNL     1     -44.884 -47.500   9.795  1.00  0.00     0.002 A 
HETATM   24  C   UNL     1     -43.855 -48.031  10.584  1.00  0.00     0.032 A 
ENDBRANCH  14  15
ENDBRANCH   1  14
TORSDOF 7
ENDMDL
MODEL 3
REMARK VINA RESULT:      -5.3      3.839      5.177
REMARK  7 active torsions:
REMARK  status: ('A' for Active; 'I' for Inactive)
REMARK    1  A    between atoms: N_2  and  C_3 
REMARK    2  A    between atoms: N_2  and  C_17 
REMARK    3  A    between atoms: C_3  and  C_4 
REMARK    4  A    between atoms: C_4  and  O_5 
REMARK    5  A    between atoms: C_4  and  C_6 
REMARK    6  A    between atoms: C_6  and  N_7 
REMARK    7  A    between atoms: C_17  and  C_18 
ROOT
HETATM    1  C   UNL     1     -41.898 -49.134  11.177  1.00  0.00     0.164 C 
ENDROOT
BRANCH   1   2
HETATM    2  C   UNL     1     -41.992 -47.612  11.468  1.00  0.00     0.305 C 
BRANCH   2   3
HETATM    3  N   UNL     1     -41.748 -46.692  10.330  1.00  0.00     0.090 N 
HETATM    4  C   UNL     1     -40.737 -45.705  10.748  1.00  0.00     0.310 C 
BRANCH   3   5
HETATM    5  C   UNL     1     -43.001 -46.023   9.909  1.00  0.00     0.310 C 
BRANCH   5   6
HETATM    6  C   UNL     1     -43.991 -46.911   9.179  1.00  0.00    -0.030 A 
HETATM    7  C   UNL     1     -43.624 -47.609   8.019  1.00  0.00     0.009 A 
HETATM    8  C   UNL     1     -44.551 -48.412   7.349  1.00  0.00     0.001 A 
HETATM    9  C   UNL     1     -45.851 -48.536   7.837  1.00  0.00     0.000 A 
HETATM   10  C   UNL     1     -46.223 -47.869   9.002  1.00  0.00     0.001 A 
HETATM   11  C   UNL     1     -45.298 -47.064   9.672  1.00  0.00     0.009 A 
ENDBRANCH   5   6
ENDBRANCH   3   5
ENDBRANCH   2   3
ENDBRANCH   1   2
BRANCH   1  12
HETATM   12  O   UNL     1     -40.792 -49.424  10.316  1.00  0.00    -0.392 OA
HETATM   13  H   UNL     1     -40.819 -48.816   9.556  1.00  0.00     0.210 HD
ENDBRANCH   1  12
BRANCH   1  14
HETATM   14  C   UNL     1     -41.713 -49.879  12.507  1.00  0.00     0.163 C 
BRANCH  14  15
HETATM   15  N   UNL     1     -42.288 -51.208  12.503  1.00  0.00    -0.339 N 
HETATM   16  C   UNL     1     -41.615 -52.351  12.165  1.00  0.00     0.184 A 
HETATM   17  N   UNL     1     -42.364 -53.418  12.319  1.00  0.00    -0.350 N 
HETATM   18  C   UNL     1     -43.577 -52.941  12.756  1.00  0.00     0.060 A 
ATOM     19  HN  UNL     1     -42.103 -54.390  12.151  1.00  0.00     0.166 HD
HETATM   20  C   UNL     1     -44.749 -53.653  13.065  1.00  0.00     0.032 A 
HETATM   21  C   UNL     1     -43.559 -51.556  12.893  1.00  0.00     0.062 A 
HETATM   22  C   UNL     1     -45.869 -52.941  13.501  1.00  0.00     0.002 A 
HETATM   23  C   UNL     1     -45.830 -51.550  13.630  1.00  0.00     0.002 A 
HETATM   24  C   UNL     1     -44.669 -50.826  13.330  1.00  0.00     0.032 A 
ENDBRANCH  14  15
ENDBRANCH   1  14
TORSDOF 7
ENDMDL
MODEL 4
REMARK VINA RESULT:      -5.3      2.238      4.860
REMARK  7 active torsions:
REMARK  status: ('A' for Active; 'I' for Inactive)
REMARK    1  A    between atoms: N_2  and  C_3 
REMARK    2  A    between atoms: N_2  and  C_17 
REMARK    3  A    between atoms: C_3  and  C_4 
REMARK    4  A    between atoms: C_4  and  O_5 
REMARK    5  A    between atoms: C_4  and  C_6 
REMARK    6  A    between atoms: C_6  and  N_7 
REMARK    7  A    between atoms: C_17  and  C_18 
ROOT
HETATM    1  C   UNL     1     -40.748 -52.693  12.240  1.00  0.00     0.164 C 
ENDROOT
BRANCH   1   2
HETATM    2  C   UNL     1     -41.100 -53.930  13.110  1.00  0.00     0.305 C 
BRANCH   2   3
HETATM    3  N   UNL     1     -42.132 -53.744  14.159  1.00  0.00     0.090 N 
HETATM    4  C   UNL     1     -41.693 -54.467  15.365  1.00  0.00     0.310 C 
BRANCH   3   5
HETATM    5  C   UNL     1     -43.451 -54.233  13.698  1.00  0.00     0.310 C 
BRANCH   5   6
HETATM    6  C   UNL     1     -44.582 -53.225  13.796  1.00  0.00    -0.030 A 
HETATM    7  C   UNL     1     -45.013 -52.736  15.038  1.00  0.00     0.009 A 
HETATM    8  C   UNL     1     -46.065 -51.819  15.114  1.00  0.00     0.001 A 
HETATM    9  C   UNL     1     -46.689 -51.371  13.951  1.00  0.00     0.000 A 
HETATM   10  C   UNL     1     -46.255 -51.829  12.709  1.00  0.00     0.001 A 
HETATM   11  C   UNL     1     -45.205 -52.748  12.631  1.00  0.00     0.009 A 
ENDBRANCH   5   6
ENDBRANCH   3   5
ENDBRANCH   2   3
ENDBRANCH   1   2
BRANCH   1  12
HETATM   12  O   UNL     1     -41.486 -52.701  11.014  1.00  0.00    -0.392 OA
HETATM   13  H   UNL     1     -40.977 -53.191  10.345  1.00  0.00     0.210 HD
ENDBRANCH   1  12
BRANCH   1  14
HETATM   14  C   UNL     1     -41.092 -51.421  13.030  1.00  0.00     0.163 C 
BRANCH  14  15
HETATM   15  N   UNL     1     -40.688 -50.204  12.358  1.00  0.00    -0.339 N 
HETATM   16  C   UNL     1     -39.419 -49.934  11.922  1.00  0.00     0.184 A 
HETATM   17  N   UNL     1     -39.359 -48.787  11.286  1.00  0.00    -0.350 N 
HETATM   18  C   UNL     1     -40.638 -48.287  11.331  1.00  0.00     0.060 A 
ATOM     19  HN  UNL     1     -38.539 -48.360  10.852  1.00  0.00     0.166 HD
HETATM   20  C   UNL     1     -41.136 -47.079  10.813  1.00  0.00     0.032 A 
HETATM   21  C   UNL     1     -41.502 -49.159  11.989  1.00  0.00     0.062 A 
HETATM   22  C   UNL     1     -42.492 -46.787  10.980  1.00  0.00     0.002 A 
HETATM   23  C   UNL     1     -43.341 -47.676  11.644  1.00  0.00     0.002 A 
HETATM   24  C   UNL     1     -42.862 -48.886  12.163  1.00  0.00     0.032 A 
ENDBRANCH  14  15
ENDBRANCH   1  14
TORSDOF 7
ENDMDL
MODEL 5
REMARK VINA RESULT:      -5.2      3.075      6.322
REMARK  7 active torsions:
REMARK  status: ('A' for Active; 'I' for Inactive)
REMARK    1  A    between atoms: N_2  and  C_3 
REMARK    2  A    between atoms: N_2  and  C_17 
REMARK    3  A    between atoms: C_3  and  C_4 
REMARK    4  A    between atoms: C_4  and  O_5 
REMARK    5  A    between atoms: C_4  and  C_6 
REMARK    6  A    between atoms: C_6  and  N_7 
REMARK    7  A    between atoms: C_17  and  C_18 
ROOT
HETATM    1  C   UNL     1     -40.769 -50.240  11.655  1.00  0.00     0.164 C 
ENDROOT
BRANCH   1   2
HETATM    2  C   UNL     1     -41.253 -51.683  11.960  1.00  0.00     0.305 C 
BRANCH   2   3
HETATM    3  N   UNL     1     -41.417 -52.051  13.387  1.00  0.00     0.090 N 
HETATM    4  C   UNL     1     -40.117 -52.533  13.886  1.00  0.00     0.310 C 
BRANCH   3   5
HETATM    5  C   UNL     1     -42.465 -53.085  13.552  1.00  0.00     0.310 C 
BRANCH   5   6
HETATM    6  C   UNL     1     -43.890 -52.563  13.543  1.00  0.00    -0.030 A 
HETATM    7  C   UNL     1     -44.803 -52.959  12.555  1.00  0.00     0.009 A 
HETATM    8  C   UNL     1     -46.108 -52.460  12.552  1.00  0.00     0.001 A 
HETATM    9  C   UNL     1     -46.519 -51.570  13.543  1.00  0.00     0.000 A 
HETATM   10  C   UNL     1     -45.631 -51.187  14.546  1.00  0.00     0.001 A 
HETATM   11  C   UNL     1     -44.325 -51.683  14.549  1.00  0.00     0.009 A 
ENDBRANCH   5   6
ENDBRANCH   3   5
ENDBRANCH   2   3
ENDBRANCH   1   2
BRANCH   1  12
HETATM   12  O   UNL     1     -40.253 -50.141  10.324  1.00  0.00    -0.392 OA
HETATM   13  H   UNL     1     -40.727 -50.775   9.757  1.00  0.00     0.210 HD
ENDBRANCH   1  12
BRANCH   1  14
HETATM   14  C   UNL     1     -41.957 -49.278  11.811  1.00  0.00     0.163 C 
BRANCH  14  15
HETATM   15  N   UNL     1     -41.753 -48.006  11.149  1.00  0.00    -0.339 N 
HETATM   16  C   UNL     1     -42.360 -47.624   9.984  1.00  0.00     0.184 A 
HETATM   17  N   UNL     1     -42.044 -46.394   9.653  1.00  0.00    -0.350 N 
HETATM   18  C   UNL     1     -41.182 -45.971  10.636  1.00  0.00     0.060 A 
ATOM     19  HN  UNL     1     -42.368 -45.866   8.842  1.00  0.00     0.166 HD
HETATM   20  C   UNL     1     -40.528 -44.734  10.769  1.00  0.00     0.032 A 
HETATM   21  C   UNL     1     -40.986 -46.958  11.599  1.00  0.00     0.062 A 
HETATM   22  C   UNL     1     -39.693 -44.534  11.872  1.00  0.00     0.002 A 
HETATM   23  C   UNL     1     -39.510 -45.538  12.826  1.00  0.00     0.002 A 
HETATM   24  C   UNL     1     -40.157 -46.775  12.710  1.00  0.00     0.032 A 
ENDBRANCH  14  15
ENDBRANCH   1  14
TORSDOF 7
ENDMDL
MODEL 6
REMARK VINA RESULT:      -5.2      1.516      2.372
REMARK  7 active torsions:
REMARK  status: ('A' for Active; 'I' for Inactive)
REMARK    1  A    between atoms: N_2  and  C_3 
REMARK    2  A    between atoms: N_2  and  C_17 
REMARK    3  A    between atoms: C_3  and  C_4 
REMARK    4  A    between atoms: C_4  and  O_5 
REMARK    5  A    between atoms: C_4  and  C_6 
REMARK    6  A    between atoms: C_6  and  N_7 
REMARK    7  A    between atoms: C_17  and  C_18 
ROOT
HETATM    1  C   UNL     1     -39.761 -51.388  14.633  1.00  0.00     0.164 C 
ENDROOT
BRANCH   1   2
HETATM    2  C   UNL     1     -40.720 -51.111  15.821  1.00  0.00     0.305 C 
BRANCH   2   3
HETATM    3  N   UNL     1     -42.006 -50.442  15.506  1.00  0.00     0.090 N 
HETATM    4  C   UNL     1     -41.760 -48.991  15.430  1.00  0.00     0.310 C 
BRANCH   3   5
HETATM    5  C   UNL     1     -43.031 -50.753  16.528  1.00  0.00     0.310 C 
BRANCH   5   6
HETATM    6  C   UNL     1     -44.382 -51.173  15.978  1.00  0.00    -0.030 A 
HETATM    7  C   UNL     1     -44.752 -50.880  14.657  1.00  0.00     0.009 A 
HETATM    8  C   UNL     1     -46.004 -51.260  14.169  1.00  0.00     0.001 A 
HETATM    9  C   UNL     1     -46.896 -51.948  14.990  1.00  0.00     0.000 A 
HETATM   10  C   UNL     1     -46.533 -52.268  16.296  1.00  0.00     0.001 A 
HETATM   11  C   UNL     1     -45.282 -51.886  16.787  1.00  0.00     0.009 A 
ENDBRANCH   5   6
ENDBRANCH   3   5
ENDBRANCH   2   3
ENDBRANCH   1   2
BRANCH   1  12
HETATM   12  O   UNL     1     -38.393 -51.278  15.041  1.00  0.00    -0.392 OA
HETATM   13  H   UNL     1     -37.885 -50.859  14.324  1.00  0.00     0.210 HD
ENDBRANCH   1  12
BRANCH   1  14
HETATM   14  C   UNL     1     -40.020 -52.809  14.111  1.00  0.00     0.163 C 
BRANCH  14  15
HETATM   15  N   UNL     1     -41.244 -52.923  13.346  1.00  0.00    -0.339 N 
HETATM   16  C   UNL     1     -41.446 -52.377  12.107  1.00  0.00     0.184 A 
HETATM   17  N   UNL     1     -42.623 -52.698  11.621  1.00  0.00    -0.350 N 
HETATM   18  C   UNL     1     -43.212 -53.468  12.596  1.00  0.00     0.060 A 
ATOM     19  HN  UNL     1     -43.014 -52.434  10.717  1.00  0.00     0.166 HD
HETATM   20  C   UNL     1     -44.483 -54.067  12.604  1.00  0.00     0.032 A 
HETATM   21  C   UNL     1     -42.367 -53.637  13.690  1.00  0.00     0.062 A 
HETATM   22  C   UNL     1     -44.863 -54.817  13.719  1.00  0.00     0.002 A 
HETATM   23  C   UNL     1     -44.000 -54.973  14.807  1.00  0.00     0.002 A 
HETATM   24  C   UNL     1     -42.728 -54.387  14.814  1.00  0.00     0.032 A 
ENDBRANCH  14  15
ENDBRANCH   1  14
TORSDOF 7
ENDMDL
MODEL 7
REMARK VINA RESULT:      -5.1      1.289      3.764
REMARK  7 active torsions:
REMARK  status: ('A' for Active; 'I' for Inactive)
REMARK    1  A    between atoms: N_2  and  C_3 
REMARK    2  A    between atoms: N_2  and  C_17 
REMARK    3  A    between atoms: C_3  and  C_4 
REMARK    4  A    between atoms: C_4  and  O_5 
REMARK    5  A    between atoms: C_4  and  C_6 
REMARK    6  A    between atoms: C_6  and  N_7 
REMARK    7  A    between atoms: C_17  and  C_18 
ROOT
HETATM    1  C   UNL     1     -40.615 -50.222  13.924  1.00  0.00     0.164 C 
ENDROOT
BRANCH   1   2
HETATM    2  C   UNL     1     -40.011 -51.514  13.310  1.00  0.00     0.305 C 
BRANCH   2   3
HETATM    3  N   UNL     1     -40.363 -52.798  13.963  1.00  0.00     0.090 N 
HETATM    4  C   UNL     1     -39.111 -53.482  14.331  1.00  0.00     0.310 C 
BRANCH   3   5
HETATM    5  C   UNL     1     -41.185 -53.642  13.066  1.00  0.00     0.310 C 
BRANCH   5   6
HETATM    6  C   UNL     1     -42.551 -54.020  13.609  1.00  0.00    -0.030 A 
HETATM    7  C   UNL     1     -42.762 -54.197  14.984  1.00  0.00     0.009 A 
HETATM    8  C   UNL     1     -44.022 -54.559  15.469  1.00  0.00     0.001 A 
HETATM    9  C   UNL     1     -45.087 -54.735  14.587  1.00  0.00     0.000 A 
HETATM   10  C   UNL     1     -44.898 -54.538  13.221  1.00  0.00     0.001 A 
HETATM   11  C   UNL     1     -43.638 -54.179  12.734  1.00  0.00     0.009 A 
ENDBRANCH   5   6
ENDBRANCH   3   5
ENDBRANCH   2   3
ENDBRANCH   1   2
BRANCH   1  12
HETATM   12  O   UNL     1     -39.918 -49.060  13.462  1.00  0.00    -0.392 OA
HETATM   13  H   UNL     1     -40.019 -48.352  14.122  1.00  0.00     0.210 HD
ENDBRANCH   1  12
BRANCH   1  14
HETATM   14  C   UNL     1     -42.091 -50.124  13.512  1.00  0.00     0.163 C 
BRANCH  14  15
HETATM   15  N   UNL     1     -43.007 -50.480  14.576  1.00  0.00    -0.339 N 
HETATM   16  C   UNL     1     -42.699 -50.470  15.909  1.00  0.00     0.184 A 
HETATM   17  N   UNL     1     -43.741 -50.771  16.650  1.00  0.00    -0.350 N 
HETATM   18  C   UNL     1     -44.758 -51.004  15.755  1.00  0.00     0.060 A 
ATOM     19  HN  UNL     1     -43.786 -50.820  17.668  1.00  0.00     0.166 HD
HETATM   20  C   UNL     1     -46.090 -51.376  16.005  1.00  0.00     0.032 A 
HETATM   21  C   UNL     1     -44.332 -50.820  14.442  1.00  0.00     0.062 A 
HETATM   22  C   UNL     1     -46.951 -51.552  14.919  1.00  0.00     0.002 A 
HETATM   23  C   UNL     1     -46.502 -51.363  13.609  1.00  0.00     0.002 A 
HETATM   24  C   UNL     1     -45.179 -50.989  13.342  1.00  0.00     0.032 A 
ENDBRANCH  14  15
ENDBRANCH   1  14
TORSDOF 7
ENDMDL
MODEL 8
REMARK VINA RESULT:      -4.9      2.782      5.143
REMARK  7 active torsions:
REMARK  status: ('A' for Active; 'I' for Inactive)
REMARK    1  A    between atoms: N_2  and  C_3 
REMARK    2  A    between atoms: N_2  and  C_17 
REMARK    3  A    between atoms: C_3  and  C_4 
REMARK    4  A    between atoms: C_4  and  O_5 
REMARK    5  A    between atoms: C_4  and  C_6 
REMARK    6  A    between atoms: C_6  and  N_7 
REMARK    7  A    between atoms: C_17  and  C_18 
ROOT
HETATM    1  C   UNL     1     -41.598 -51.969  12.182  1.00  0.00     0.164 C 
ENDROOT
BRANCH   1   2
HETATM    2  C   UNL     1     -40.391 -51.212  12.800  1.00  0.00     0.305 C 
BRANCH   2   3
HETATM    3  N   UNL     1     -39.742 -50.178  11.958  1.00  0.00     0.090 N 
HETATM    4  C   UNL     1     -38.296 -50.458  11.922  1.00  0.00     0.310 C 
BRANCH   3   5
HETATM    5  C   UNL     1     -40.006 -48.820  12.488  1.00  0.00     0.310 C 
BRANCH   5   6
HETATM    6  C   UNL     1     -40.814 -47.918  11.573  1.00  0.00    -0.030 A 
HETATM    7  C   UNL     1     -40.394 -46.612  11.284  1.00  0.00     0.009 A 
HETATM    8  C   UNL     1     -41.155 -45.787  10.452  1.00  0.00     0.001 A 
HETATM    9  C   UNL     1     -42.338 -46.263   9.888  1.00  0.00     0.000 A 
HETATM   10  C   UNL     1     -42.755 -47.567  10.145  1.00  0.00     0.001 A 
HETATM   11  C   UNL     1     -41.997 -48.392  10.980  1.00  0.00     0.009 A 
ENDBRANCH   5   6
ENDBRANCH   3   5
ENDBRANCH   2   3
ENDBRANCH   1   2
BRANCH   1  12
HETATM   12  O   UNL     1     -41.204 -52.694  11.013  1.00  0.00    -0.392 OA
HETATM   13  H   UNL     1     -40.248 -52.869  11.060  1.00  0.00     0.210 HD
ENDBRANCH   1  12
BRANCH   1  14
HETATM   14  C   UNL     1     -42.149 -52.951  13.226  1.00  0.00     0.163 C 
BRANCH  14  15
HETATM   15  N   UNL     1     -43.596 -52.963  13.292  1.00  0.00    -0.339 N 
HETATM   16  C   UNL     1     -44.409 -53.740  12.513  1.00  0.00     0.184 A 
HETATM   17  N   UNL     1     -45.673 -53.597  12.837  1.00  0.00    -0.350 N 
HETATM   18  C   UNL     1     -45.677 -52.673  13.855  1.00  0.00     0.060 A 
ATOM     19  HN  UNL     1     -46.478 -54.069  12.423  1.00  0.00     0.166 HD
HETATM   20  C   UNL     1     -46.767 -52.142  14.565  1.00  0.00     0.032 A 
HETATM   21  C   UNL     1     -44.385 -52.262  14.173  1.00  0.00     0.062 A 
HETATM   22  C   UNL     1     -46.518 -51.208  15.574  1.00  0.00     0.002 A 
HETATM   23  C   UNL     1     -45.214 -50.808  15.876  1.00  0.00     0.002 A 
HETATM   24  C   UNL     1     -44.116 -51.331  15.180  1.00  0.00     0.032 A 
ENDBRANCH  14  15
ENDBRANCH   1  14
TORSDOF 7
ENDMDL
MODEL 9
REMARK VINA RESULT:      -4.9      1.900      3.219
REMARK  7 active torsions:
REMARK  status: ('A' for Active; 'I' for Inactive)
REMARK    1  A    between atoms: N_2  and  C_3 
REMARK    2  A    between atoms: N_2  and  C_17 
REMARK    3  A    between atoms: C_3  and  C_4 
REMARK    4  A    between atoms: C_4  and  O_5 
REMARK    5  A    between atoms: C_4  and  C_6 
REMARK    6  A    between atoms: C_6  and  N_7 
REMARK    7  A    between atoms: C_17  and  C_18 
ROOT
HETATM    1  C   UNL     1     -39.915 -53.840  13.723  1.00  0.00     0.164 C 
ENDROOT
BRANCH   1   2
HETATM    2  C   UNL     1     -40.317 -54.073  15.204  1.00  0.00     0.305 C 
BRANCH   2   3
HETATM    3  N   UNL     1     -40.725 -52.881  15.987  1.00  0.00     0.090 N 
HETATM    4  C   UNL     1     -39.559 -52.421  16.761  1.00  0.00     0.310 C 
BRANCH   3   5
HETATM    5  C   UNL     1     -41.864 -53.196  16.879  1.00  0.00     0.310 C 
BRANCH   5   6
HETATM    6  C   UNL     1     -43.066 -52.280  16.737  1.00  0.00    -0.030 A 
HETATM    7  C   UNL     1     -42.923 -50.956  16.299  1.00  0.00     0.009 A 
HETATM    8  C   UNL     1     -44.037 -50.120  16.187  1.00  0.00     0.001 A 
HETATM    9  C   UNL     1     -45.307 -50.601  16.500  1.00  0.00     0.000 A 
HETATM   10  C   UNL     1     -45.468 -51.921  16.913  1.00  0.00     0.001 A 
HETATM   11  C   UNL     1     -44.355 -52.758  17.028  1.00  0.00     0.009 A 
ENDBRANCH   5   6
ENDBRANCH   3   5
ENDBRANCH   2   3
ENDBRANCH   1   2
BRANCH   1  12
HETATM   12  O   UNL     1     -38.818 -54.681  13.351  1.00  0.00    -0.392 OA
HETATM   13  H   UNL     1     -38.358 -54.971  14.158  1.00  0.00     0.210 HD
ENDBRANCH   1  12
BRANCH   1  14
HETATM   14  C   UNL     1     -41.122 -54.157  12.829  1.00  0.00     0.163 C 
BRANCH  14  15
HETATM   15  N   UNL     1     -42.129 -53.116  12.838  1.00  0.00    -0.339 N 
HETATM   16  C   UNL     1     -41.907 -51.809  12.500  1.00  0.00     0.184 A 
HETATM   17  N   UNL     1     -43.015 -51.104  12.531  1.00  0.00    -0.350 N 
HETATM   18  C   UNL     1     -43.989 -51.991  12.925  1.00  0.00     0.060 A 
ATOM     19  HN  UNL     1     -43.128 -50.114  12.311  1.00  0.00     0.166 HD
HETATM   20  C   UNL     1     -45.360 -51.764  13.134  1.00  0.00     0.032 A 
HETATM   21  C   UNL     1     -43.467 -53.267  13.116  1.00  0.00     0.062 A 
HETATM   22  C   UNL     1     -46.162 -52.837  13.532  1.00  0.00     0.002 A 
HETATM   23  C   UNL     1     -45.618 -54.110  13.719  1.00  0.00     0.002 A 
HETATM   24  C   UNL     1     -44.254 -54.353  13.512  1.00  0.00     0.032 A 
ENDBRANCH  14  15
ENDBRANCH   1  14
TORSDOF 7
ENDMDL
