MODEL 1
REMARK VINA RESULT:      -7.0      0.000      0.000
REMARK  7 active torsions:
REMARK  status: ('A' for Active; 'I' for Inactive)
REMARK    1  A    between atoms: N_1  and  C_3 
REMARK    2  A    between atoms: N_4  and  C_15 
REMARK    3  A    between atoms: C_8  and  C_14 
REMARK       I    between atoms: C_14  and  N_24 
REMARK    4  A    between atoms: C_15  and  C_18 
REMARK    5  A    between atoms: C_18  and  C_23 
REMARK    6  A    between atoms: C_18  and  C_26 
REMARK    7  A    between atoms: C_26  and  O_28 
ROOT
HETATM    1  C   UNL     1     -42.733 -51.125  12.760  1.00  0.00     0.122 A 
HETATM    2  C   UNL     1     -43.006 -52.447  13.202  1.00  0.00     0.136 A 
HETATM    3  N   UNL     1     -41.509 -49.573  11.821  1.00  0.00    -0.327 N 
HETATM    4  C   UNL     1     -41.494 -50.893  12.177  1.00  0.00     0.140 A 
HETATM    5  N   UNL     1     -43.474 -49.949  12.787  1.00  0.00    -0.346 N 
ATOM      6  HN  UNL     1     -44.422 -49.822  13.140  1.00  0.00     0.167 HD
HETATM    7  C   UNL     1     -42.688 -49.036  12.258  1.00  0.00     0.185 A 
HETATM    8  N   UNL     1     -41.994 -53.353  13.050  1.00  0.00    -0.337 N 
ATOM      9  HN  UNL     1     -42.115 -54.312  13.376  1.00  0.00     0.168 HD
HETATM   10  N   UNL     1     -40.496 -51.770  11.995  1.00  0.00    -0.336 N 
ATOM     11  HN  UNL     1     -39.602 -51.548  11.556  1.00  0.00     0.168 HD
HETATM   12  C   UNL     1     -40.834 -52.979  12.470  1.00  0.00     0.183 A 
ENDROOT
BRANCH   2  13
HETATM   13  N   UNL     1     -44.195 -52.842  13.798  1.00  0.00    -0.349 N 
HETATM   14  C   UNL     1     -45.253 -53.452  12.967  1.00  0.00     0.174 C 
HETATM   15  C   UNL     1     -45.805 -54.631  13.787  1.00  0.00     0.073 C 
HETATM   16  C   UNL     1     -44.823 -54.822  14.922  1.00  0.00     0.190 C 
HETATM   17  C   UNL     1     -44.175 -53.460  15.124  1.00  0.00     0.162 C 
HETATM   18  F   UNL     1     -43.880 -55.725  14.529  1.00  0.00    -0.248 F 
BRANCH  14  19
HETATM   19  C   UNL     1     -46.388 -52.436  12.735  1.00  0.00     0.218 C 
HETATM   20  O   UNL     1     -46.831 -51.683  13.599  1.00  0.00    -0.278 OA
HETATM   21  N   UNL     1     -46.911 -52.419  11.472  1.00  0.00    -0.271 NA
HETATM   22  H   UNL     1     -47.544 -51.650  11.300  1.00  0.00     0.127 HD
HETATM   23  H   UNL     1     -46.245 -52.610  10.723  1.00  0.00     0.127 HD
ENDBRANCH  14  19
ENDBRANCH   2  13
BRANCH   3  24
HETATM   24  C   UNL     1     -40.439 -48.844  11.173  1.00  0.00     0.138 C 
BRANCH  24  25
HETATM   25  C   UNL     1     -39.494 -48.059  12.116  1.00  0.00     0.034 C 
BRANCH  25  26
HETATM   26  C   UNL     1     -38.163 -48.809  12.385  1.00  0.00     0.019 C 
HETATM   27  C   UNL     1     -37.737 -49.772  11.270  1.00  0.00     0.172 C 
HETATM   28  O   UNL     1     -37.485 -51.042  11.884  1.00  0.00    -0.391 OA
HETATM   29  C   UNL     1     -37.193 -50.793  13.260  1.00  0.00     0.168 C 
HETATM   30  C   UNL     1     -38.122 -49.665  13.644  1.00  0.00     0.033 C 
ENDBRANCH  25  26
BRANCH  25  31
HETATM   31  C   UNL     1     -39.300 -46.637  11.549  1.00  0.00     0.170 C 
BRANCH  31  32
HETATM   32  O   UNL     1     -40.010 -46.478  10.326  1.00  0.00    -0.400 OA
HETATM   33  H   UNL     1     -40.468 -45.622  10.318  1.00  0.00     0.209 HD
ENDBRANCH  31  32
ENDBRANCH  25  31
ENDBRANCH  24  25
ENDBRANCH   3  24
TORSDOF 7
ENDMDL
MODEL 2
REMARK VINA RESULT:      -6.9      1.648      2.235
REMARK  7 active torsions:
REMARK  status: ('A' for Active; 'I' for Inactive)
REMARK    1  A    between atoms: N_1  and  C_3 
REMARK    2  A    between atoms: N_4  and  C_15 
REMARK    3  A    between atoms: C_8  and  C_14 
REMARK       I    between atoms: C_14  and  N_24 
REMARK    4  A    between atoms: C_15  and  C_18 
REMARK    5  A    between atoms: C_18  and  C_23 
REMARK    6  A    between atoms: C_18  and  C_26 
REMARK    7  A    between atoms: C_26  and  O_28 
ROOT
HETATM    1  C   UNL     1     -42.902 -51.461  12.747  1.00  0.00     0.122 A 
HETATM    2  C   UNL     1     -43.133 -52.830  13.050  1.00  0.00     0.136 A 
HETATM    3  N   UNL     1     -41.744 -49.787  11.943  1.00  0.00    -0.327 N 
HETATM    4  C   UNL     1     -41.691 -51.137  12.150  1.00  0.00     0.140 A 
HETATM    5  N   UNL     1     -43.663 -50.313  12.931  1.00  0.00    -0.346 N 
ATOM      6  HN  UNL     1     -44.600 -50.247  13.330  1.00  0.00     0.167 HD
HETATM    7  C   UNL     1     -42.916 -49.329  12.479  1.00  0.00     0.185 A 
HETATM    8  N   UNL     1     -42.110 -53.689  12.762  1.00  0.00    -0.337 N 
ATOM      9  HN  UNL     1     -42.201 -54.681  12.984  1.00  0.00     0.168 HD
HETATM   10  N   UNL     1     -40.684 -51.965  11.836  1.00  0.00    -0.336 N 
ATOM     11  HN  UNL     1     -39.812 -51.676  11.392  1.00  0.00     0.168 HD
HETATM   12  C   UNL     1     -40.980 -53.227  12.186  1.00  0.00     0.183 A 
ENDROOT
BRANCH   2  13
HETATM   13  N   UNL     1     -44.290 -53.315  13.640  1.00  0.00    -0.349 N 
HETATM   14  C   UNL     1     -44.534 -53.056  15.074  1.00  0.00     0.174 C 
HETATM   15  C   UNL     1     -46.023 -52.686  15.187  1.00  0.00     0.073 C 
HETATM   16  C   UNL     1     -46.486 -52.456  13.765  1.00  0.00     0.190 C 
HETATM   17  C   UNL     1     -45.551 -53.289  12.900  1.00  0.00     0.162 C 
HETATM   18  F   UNL     1     -46.329 -51.134  13.469  1.00  0.00    -0.248 F 
BRANCH  14  19
HETATM   19  C   UNL     1     -44.279 -54.338  15.889  1.00  0.00     0.218 C 
HETATM   20  O   UNL     1     -44.678 -54.521  17.036  1.00  0.00    -0.278 OA
HETATM   21  N   UNL     1     -43.544 -55.301  15.254  1.00  0.00    -0.271 NA
HETATM   22  H   UNL     1     -43.516 -56.185  15.742  1.00  0.00     0.127 HD
HETATM   23  H   UNL     1     -43.691 -55.365  14.246  1.00  0.00     0.127 HD
ENDBRANCH  14  19
ENDBRANCH   2  13
BRANCH   3  24
HETATM   24  C   UNL     1     -40.715 -48.967  11.342  1.00  0.00     0.138 C 
BRANCH  24  25
HETATM   25  C   UNL     1     -39.817 -48.183  12.332  1.00  0.00     0.034 C 
BRANCH  25  26
HETATM   26  C   UNL     1     -38.467 -48.897  12.605  1.00  0.00     0.019 C 
HETATM   27  C   UNL     1     -37.938 -49.732  11.432  1.00  0.00     0.172 C 
HETATM   28  O   UNL     1     -37.658 -51.042  11.941  1.00  0.00    -0.391 OA
HETATM   29  C   UNL     1     -37.449 -50.911  13.348  1.00  0.00     0.168 C 
HETATM   30  C   UNL     1     -38.450 -49.864  13.781  1.00  0.00     0.033 C 
ENDBRANCH  25  26
BRANCH  25  31
HETATM   31  C   UNL     1     -39.660 -46.737  11.817  1.00  0.00     0.170 C 
BRANCH  31  32
HETATM   32  O   UNL     1     -40.031 -46.643  10.447  1.00  0.00    -0.400 OA
HETATM   33  H   UNL     1     -40.733 -45.982  10.338  1.00  0.00     0.209 HD
ENDBRANCH  31  32
ENDBRANCH  25  31
ENDBRANCH  24  25
ENDBRANCH   3  24
TORSDOF 7
ENDMDL
MODEL 3
REMARK VINA RESULT:      -6.8      2.635      4.570
REMARK  7 active torsions:
REMARK  status: ('A' for Active; 'I' for Inactive)
REMARK    1  A    between atoms: N_1  and  C_3 
REMARK    2  A    between atoms: N_4  and  C_15 
REMARK    3  A    between atoms: C_8  and  C_14 
REMARK       I    between atoms: C_14  and  N_24 
REMARK    4  A    between atoms: C_15  and  C_18 
REMARK    5  A    between atoms: C_18  and  C_23 
REMARK    6  A    between atoms: C_18  and  C_26 
REMARK    7  A    between atoms: C_26  and  O_28 
ROOT
HETATM    1  C   UNL     1     -41.753 -50.492  12.430  1.00  0.00     0.122 A 
HETATM    2  C   UNL     1     -42.592 -51.341  13.200  1.00  0.00     0.136 A 
HETATM    3  N   UNL     1     -40.896 -48.563  11.854  1.00  0.00    -0.327 N 
HETATM    4  C   UNL     1     -41.809 -49.130  12.697  1.00  0.00     0.140 A 
HETATM    5  N   UNL     1     -40.840 -50.739  11.411  1.00  0.00    -0.346 N 
ATOM      6  HN  UNL     1     -40.580 -51.644  11.018  1.00  0.00     0.167 HD
HETATM    7  C   UNL     1     -40.384 -49.555  11.064  1.00  0.00     0.185 A 
HETATM    8  N   UNL     1     -43.412 -50.721  14.100  1.00  0.00    -0.337 N 
ATOM      9  HN  UNL     1     -44.061 -51.271  14.662  1.00  0.00     0.168 HD
HETATM   10  N   UNL     1     -42.586 -48.501  13.591  1.00  0.00    -0.336 N 
ATOM     11  HN  UNL     1     -42.587 -47.494  13.752  1.00  0.00     0.168 HD
HETATM   12  C   UNL     1     -43.362 -49.379  14.246  1.00  0.00     0.183 A 
ENDROOT
BRANCH   2  13
HETATM   13  N   UNL     1     -42.649 -52.720  13.059  1.00  0.00    -0.349 N 
HETATM   14  C   UNL     1     -41.836 -53.572  13.950  1.00  0.00     0.174 C 
HETATM   15  C   UNL     1     -42.745 -54.744  14.357  1.00  0.00     0.073 C 
HETATM   16  C   UNL     1     -44.136 -54.341  13.920  1.00  0.00     0.190 C 
HETATM   17  C   UNL     1     -43.927 -53.370  12.766  1.00  0.00     0.162 C 
HETATM   18  F   UNL     1     -44.745 -53.697  14.956  1.00  0.00    -0.248 F 
BRANCH  14  19
HETATM   19  C   UNL     1     -40.625 -54.131  13.178  1.00  0.00     0.218 C 
HETATM   20  O   UNL     1     -39.719 -54.785  13.688  1.00  0.00    -0.278 OA
HETATM   21  N   UNL     1     -40.596 -53.840  11.842  1.00  0.00    -0.271 NA
HETATM   22  H   UNL     1     -39.881 -54.337  11.329  1.00  0.00     0.127 HD
HETATM   23  H   UNL     1     -41.509 -53.799  11.387  1.00  0.00     0.127 HD
ENDBRANCH  14  19
ENDBRANCH   2  13
BRANCH   3  24
HETATM   24  C   UNL     1     -40.579 -47.155  11.749  1.00  0.00     0.138 C 
BRANCH  24  25
HETATM   25  C   UNL     1     -41.045 -46.457  10.446  1.00  0.00     0.034 C 
BRANCH  25  26
HETATM   26  C   UNL     1     -42.581 -46.540  10.242  1.00  0.00     0.019 C 
HETATM   27  C   UNL     1     -43.036 -47.622   9.255  1.00  0.00     0.172 C 
HETATM   28  O   UNL     1     -43.889 -46.985   8.296  1.00  0.00    -0.391 OA
HETATM   29  C   UNL     1     -44.407 -45.805   8.912  1.00  0.00     0.168 C 
HETATM   30  C   UNL     1     -43.255 -45.273   9.734  1.00  0.00     0.033 C 
ENDBRANCH  25  26
BRANCH  25  31
HETATM   31  C   UNL     1     -40.496 -45.015  10.435  1.00  0.00     0.170 C 
BRANCH  31  32
HETATM   32  O   UNL     1     -39.637 -44.808   9.319  1.00  0.00    -0.400 OA
HETATM   33  H   UNL     1     -40.114 -44.338   8.617  1.00  0.00     0.209 HD
ENDBRANCH  31  32
ENDBRANCH  25  31
ENDBRANCH  24  25
ENDBRANCH   3  24
TORSDOF 7
ENDMDL
MODEL 4
REMARK VINA RESULT:      -6.6      3.023      7.362
REMARK  7 active torsions:
REMARK  status: ('A' for Active; 'I' for Inactive)
REMARK    1  A    between atoms: N_1  and  C_3 
REMARK    2  A    between atoms: N_4  and  C_15 
REMARK    3  A    between atoms: C_8  and  C_14 
REMARK       I    between atoms: C_14  and  N_24 
REMARK    4  A    between atoms: C_15  and  C_18 
REMARK    5  A    between atoms: C_18  and  C_23 
REMARK    6  A    between atoms: C_18  and  C_26 
REMARK    7  A    between atoms: C_26  and  O_28 
ROOT
HETATM    1  C   UNL     1     -41.090 -48.765  12.363  1.00  0.00     0.122 A 
HETATM    2  C   UNL     1     -39.974 -47.915  12.142  1.00  0.00     0.136 A 
HETATM    3  N   UNL     1     -42.131 -50.690  12.373  1.00  0.00    -0.327 N 
HETATM    4  C   UNL     1     -40.941 -50.107  12.037  1.00  0.00     0.140 A 
HETATM    5  N   UNL     1     -42.368 -48.535  12.858  1.00  0.00    -0.346 N 
ATOM      6  HN  UNL     1     -42.754 -47.652  13.191  1.00  0.00     0.167 HD
HETATM    7  C   UNL     1     -42.973 -49.702  12.805  1.00  0.00     0.185 A 
HETATM    8  N   UNL     1     -38.874 -48.500  11.582  1.00  0.00    -0.337 N 
ATOM      9  HN  UNL     1     -38.050 -47.938  11.370  1.00  0.00     0.168 HD
HETATM   10  N   UNL     1     -39.865 -50.709  11.510  1.00  0.00    -0.336 N 
ATOM     11  HN  UNL     1     -39.805 -51.703  11.291  1.00  0.00     0.168 HD
HETATM   12  C   UNL     1     -38.877 -49.823  11.310  1.00  0.00     0.183 A 
ENDROOT
BRANCH   2  13
HETATM   13  N   UNL     1     -39.959 -46.556  12.420  1.00  0.00    -0.349 N 
HETATM   14  C   UNL     1     -40.940 -45.672  11.757  1.00  0.00     0.174 C 
HETATM   15  C   UNL     1     -41.436 -44.704  12.844  1.00  0.00     0.073 C 
HETATM   16  C   UNL     1     -40.938 -45.282  14.151  1.00  0.00     0.190 C 
HETATM   17  C   UNL     1     -39.704 -46.094  13.784  1.00  0.00     0.162 C 
HETATM   18  F   UNL     1     -41.900 -46.109  14.652  1.00  0.00    -0.248 F 
BRANCH  14  19
HETATM   19  C   UNL     1     -40.245 -44.857  10.649  1.00  0.00     0.218 C 
HETATM   20  O   UNL     1     -40.432 -43.660  10.449  1.00  0.00    -0.278 OA
HETATM   21  N   UNL     1     -39.383 -45.562   9.855  1.00  0.00    -0.271 NA
HETATM   22  H   UNL     1     -38.829 -44.985   9.238  1.00  0.00     0.127 HD
HETATM   23  H   UNL     1     -38.873 -46.310  10.326  1.00  0.00     0.127 HD
ENDBRANCH  14  19
ENDBRANCH   2  13
BRANCH   3  24
HETATM   24  C   UNL     1     -42.477 -52.087  12.225  1.00  0.00     0.138 C 
BRANCH  24  25
HETATM   25  C   UNL     1     -42.170 -52.989  13.447  1.00  0.00     0.034 C 
BRANCH  25  26
HETATM   26  C   UNL     1     -43.455 -53.537  14.121  1.00  0.00     0.019 C 
HETATM   27  C   UNL     1     -43.233 -54.764  15.014  1.00  0.00     0.172 C 
HETATM   28  O   UNL     1     -44.159 -55.770  14.585  1.00  0.00    -0.391 OA
HETATM   29  C   UNL     1     -45.235 -55.098  13.929  1.00  0.00     0.168 C 
HETATM   30  C   UNL     1     -44.571 -53.966  13.178  1.00  0.00     0.033 C 
ENDBRANCH  25  26
BRANCH  25  31
HETATM   31  C   UNL     1     -41.182 -54.090  13.011  1.00  0.00     0.170 C 
BRANCH  31  32
HETATM   32  O   UNL     1     -40.528 -53.735  11.798  1.00  0.00    -0.400 OA
HETATM   33  H   UNL     1     -39.781 -53.143  11.986  1.00  0.00     0.209 HD
ENDBRANCH  31  32
ENDBRANCH  25  31
ENDBRANCH  24  25
ENDBRANCH   3  24
TORSDOF 7
ENDMDL
MODEL 5
REMARK VINA RESULT:      -6.6      2.391      3.315
REMARK  7 active torsions:
REMARK  status: ('A' for Active; 'I' for Inactive)
REMARK    1  A    between atoms: N_1  and  C_3 
REMARK    2  A    between atoms: N_4  and  C_15 
REMARK    3  A    between atoms: C_8  and  C_14 
REMARK       I    between atoms: C_14  and  N_24 
REMARK    4  A    between atoms: C_15  and  C_18 
REMARK    5  A    between atoms: C_18  and  C_23 
REMARK    6  A    between atoms: C_18  and  C_26 
REMARK    7  A    between atoms: C_26  and  O_28 
ROOT
HETATM    1  C   UNL     1     -42.315 -51.815  13.308  1.00  0.00     0.122 A 
HETATM    2  C   UNL     1     -43.480 -51.648  14.104  1.00  0.00     0.136 A 
HETATM    3  N   UNL     1     -40.187 -51.579  12.853  1.00  0.00    -0.327 N 
HETATM    4  C   UNL     1     -41.138 -51.245  13.777  1.00  0.00     0.140 A 
HETATM    5  N   UNL     1     -42.083 -52.456  12.097  1.00  0.00    -0.346 N 
ATOM      6  HN  UNL     1     -42.756 -52.974  11.531  1.00  0.00     0.167 HD
HETATM    7  C   UNL     1     -40.809 -52.252  11.838  1.00  0.00     0.185 A 
HETATM    8  N   UNL     1     -43.332 -50.896  15.235  1.00  0.00    -0.337 N 
ATOM      9  HN  UNL     1     -44.138 -50.713  15.833  1.00  0.00     0.168 HD
HETATM   10  N   UNL     1     -40.964 -50.525  14.894  1.00  0.00    -0.336 N 
ATOM     11  HN  UNL     1     -40.073 -50.130  15.197  1.00  0.00     0.168 HD
HETATM   12  C   UNL     1     -42.121 -50.396  15.561  1.00  0.00     0.183 A 
ENDROOT
BRANCH   2  13
HETATM   13  N   UNL     1     -44.728 -52.159  13.779  1.00  0.00    -0.349 N 
HETATM   14  C   UNL     1     -45.232 -53.347  14.497  1.00  0.00     0.174 C 
HETATM   15  C   UNL     1     -46.715 -53.063  14.790  1.00  0.00     0.073 C 
HETATM   16  C   UNL     1     -46.907 -51.592  14.492  1.00  0.00     0.190 C 
HETATM   17  C   UNL     1     -45.830 -51.247  13.473  1.00  0.00     0.162 C 
HETATM   18  F   UNL     1     -46.694 -50.887  15.640  1.00  0.00    -0.248 F 
BRANCH  14  19
HETATM   19  C   UNL     1     -45.137 -54.587  13.588  1.00  0.00     0.218 C 
HETATM   20  O   UNL     1     -45.542 -55.705  13.897  1.00  0.00    -0.278 OA
HETATM   21  N   UNL     1     -44.541 -54.381  12.374  1.00  0.00    -0.271 NA
HETATM   22  H   UNL     1     -44.623 -55.163  11.739  1.00  0.00     0.127 HD
HETATM   23  H   UNL     1     -44.708 -53.464  11.959  1.00  0.00     0.127 HD
ENDBRANCH  14  19
ENDBRANCH   2  13
BRANCH   3  24
HETATM   24  C   UNL     1     -38.786 -51.218  12.891  1.00  0.00     0.138 C 
BRANCH  24  25
HETATM   25  C   UNL     1     -38.430 -49.843  12.273  1.00  0.00     0.034 C 
BRANCH  25  26
HETATM   26  C   UNL     1     -38.004 -48.802  13.341  1.00  0.00     0.019 C 
HETATM   27  C   UNL     1     -37.645 -49.400  14.707  1.00  0.00     0.172 C 
HETATM   28  O   UNL     1     -38.417 -48.698  15.690  1.00  0.00    -0.391 OA
HETATM   29  C   UNL     1     -38.760 -47.430  15.128  1.00  0.00     0.168 C 
HETATM   30  C   UNL     1     -39.030 -47.726  13.670  1.00  0.00     0.033 C 
ENDBRANCH  25  26
BRANCH  25  31
HETATM   31  C   UNL     1     -37.379 -50.057  11.163  1.00  0.00     0.170 C 
BRANCH  31  32
HETATM   32  O   UNL     1     -37.048 -51.436  11.038  1.00  0.00    -0.400 OA
HETATM   33  H   UNL     1     -37.071 -51.862  11.910  1.00  0.00     0.209 HD
ENDBRANCH  31  32
ENDBRANCH  25  31
ENDBRANCH  24  25
ENDBRANCH   3  24
TORSDOF 7
ENDMDL
MODEL 6
REMARK VINA RESULT:      -6.6      1.195      1.504
REMARK  7 active torsions:
REMARK  status: ('A' for Active; 'I' for Inactive)
REMARK    1  A    between atoms: N_1  and  C_3 
REMARK    2  A    between atoms: N_4  and  C_15 
REMARK    3  A    between atoms: C_8  and  C_14 
REMARK       I    between atoms: C_14  and  N_24 
REMARK    4  A    between atoms: C_15  and  C_18 
REMARK    5  A    between atoms: C_18  and  C_23 
REMARK    6  A    between atoms: C_18  and  C_26 
REMARK    7  A    between atoms: C_26  and  O_28 
ROOT
HETATM    1  C   UNL     1     -42.778 -50.733  12.624  1.00  0.00     0.122 A 
HETATM    2  C   UNL     1     -42.926 -52.095  13.001  1.00  0.00     0.136 A 
HETATM    3  N   UNL     1     -41.742 -49.048  11.690  1.00  0.00    -0.327 N 
HETATM    4  C   UNL     1     -41.611 -50.381  11.959  1.00  0.00     0.140 A 
HETATM    5  N   UNL     1     -43.589 -49.616  12.785  1.00  0.00    -0.346 N 
ATOM      6  HN  UNL     1     -44.510 -49.577  13.221  1.00  0.00     0.167 HD
HETATM    7  C   UNL     1     -42.912 -48.621  12.254  1.00  0.00     0.185 A 
HETATM    8  N   UNL     1     -41.874 -52.917  12.711  1.00  0.00    -0.337 N 
ATOM      9  HN  UNL     1     -41.904 -53.899  12.984  1.00  0.00     0.168 HD
HETATM   10  N   UNL     1     -40.577 -51.173  11.641  1.00  0.00    -0.336 N 
ATOM     11  HN  UNL     1     -39.740 -50.864  11.147  1.00  0.00     0.168 HD
HETATM   12  C   UNL     1     -40.794 -52.429  12.064  1.00  0.00     0.183 A 
ENDROOT
BRANCH   2  13
HETATM   13  N   UNL     1     -44.031 -52.606  13.664  1.00  0.00    -0.349 N 
HETATM   14  C   UNL     1     -45.067 -53.326  12.896  1.00  0.00     0.174 C 
HETATM   15  C   UNL     1     -45.447 -54.551  13.745  1.00  0.00     0.073 C 
HETATM   16  C   UNL     1     -44.387 -54.635  14.822  1.00  0.00     0.190 C 
HETATM   17  C   UNL     1     -43.872 -53.212  14.987  1.00  0.00     0.162 C 
HETATM   18  F   UNL     1     -43.380 -55.438  14.375  1.00  0.00    -0.248 F 
BRANCH  14  19
HETATM   19  C   UNL     1     -46.312 -52.433  12.730  1.00  0.00     0.218 C 
HETATM   20  O   UNL     1     -46.823 -51.782  13.638  1.00  0.00    -0.278 OA
HETATM   21  N   UNL     1     -46.854 -52.409  11.475  1.00  0.00    -0.271 NA
HETATM   22  H   UNL     1     -47.571 -51.708  11.351  1.00  0.00     0.127 HD
HETATM   23  H   UNL     1     -46.182 -52.484  10.710  1.00  0.00     0.127 HD
ENDBRANCH  14  19
ENDBRANCH   2  13
BRANCH   3  24
HETATM   24  C   UNL     1     -40.781 -48.209  11.006  1.00  0.00     0.138 C 
BRANCH  24  25
HETATM   25  C   UNL     1     -40.460 -46.858  11.693  1.00  0.00     0.034 C 
BRANCH  25  26
HETATM   26  C   UNL     1     -39.506 -47.019  12.906  1.00  0.00     0.019 C 
HETATM   27  C   UNL     1     -38.680 -48.312  12.901  1.00  0.00     0.172 C 
HETATM   28  O   UNL     1     -38.881 -48.943  14.172  1.00  0.00    -0.391 OA
HETATM   29  C   UNL     1     -39.277 -47.924  15.090  1.00  0.00     0.168 C 
HETATM   30  C   UNL     1     -40.166 -47.011  14.278  1.00  0.00     0.033 C 
ENDBRANCH  25  26
BRANCH  25  31
HETATM   31  C   UNL     1     -39.941 -45.872  10.625  1.00  0.00     0.170 C 
BRANCH  31  32
HETATM   32  O   UNL     1     -40.985 -45.494   9.734  1.00  0.00    -0.400 OA
HETATM   33  H   UNL     1     -40.877 -44.566   9.473  1.00  0.00     0.209 HD
ENDBRANCH  31  32
ENDBRANCH  25  31
ENDBRANCH  24  25
ENDBRANCH   3  24
TORSDOF 7
ENDMDL
MODEL 7
REMARK VINA RESULT:      -6.6      1.322      2.833
REMARK  7 active torsions:
REMARK  status: ('A' for Active; 'I' for Inactive)
REMARK    1  A    between atoms: N_1  and  C_3 
REMARK    2  A    between atoms: N_4  and  C_15 
REMARK    3  A    between atoms: C_8  and  C_14 
REMARK       I    between atoms: C_14  and  N_24 
REMARK    4  A    between atoms: C_15  and  C_18 
REMARK    5  A    between atoms: C_18  and  C_23 
REMARK    6  A    between atoms: C_18  and  C_26 
REMARK    7  A    between atoms: C_26  and  O_28 
ROOT
HETATM    1  C   UNL     1     -42.665 -50.784  12.620  1.00  0.00     0.122 A 
HETATM    2  C   UNL     1     -42.858 -52.102  13.113  1.00  0.00     0.136 A 
HETATM    3  N   UNL     1     -41.534 -49.197  11.624  1.00  0.00    -0.327 N 
HETATM    4  C   UNL     1     -41.439 -50.498  12.033  1.00  0.00     0.140 A 
HETATM    5  N   UNL     1     -43.478 -49.657  12.597  1.00  0.00    -0.346 N 
ATOM      6  HN  UNL     1     -44.435 -49.576  12.941  1.00  0.00     0.167 HD
HETATM    7  C   UNL     1     -42.748 -48.718  12.035  1.00  0.00     0.185 A 
HETATM    8  N   UNL     1     -41.790 -52.947  13.001  1.00  0.00    -0.337 N 
ATOM      9  HN  UNL     1     -41.853 -53.899  13.365  1.00  0.00     0.168 HD
HETATM   10  N   UNL     1     -40.387 -51.316  11.890  1.00  0.00    -0.336 N 
ATOM     11  HN  UNL     1     -39.506 -51.057  11.446  1.00  0.00     0.168 HD
HETATM   12  C   UNL     1     -40.652 -52.525  12.411  1.00  0.00     0.183 A 
ENDROOT
BRANCH   2  13
HETATM   13  N   UNL     1     -44.023 -52.547  13.719  1.00  0.00    -0.349 N 
HETATM   14  C   UNL     1     -45.049 -53.226  12.903  1.00  0.00     0.174 C 
HETATM   15  C   UNL     1     -45.538 -54.416  13.745  1.00  0.00     0.073 C 
HETATM   16  C   UNL     1     -44.545 -54.537  14.881  1.00  0.00     0.190 C 
HETATM   17  C   UNL     1     -43.968 -53.139  15.056  1.00  0.00     0.162 C 
HETATM   18  F   UNL     1     -43.557 -55.396  14.501  1.00  0.00    -0.248 F 
BRANCH  14  19
HETATM   19  C   UNL     1     -46.236 -52.274  12.656  1.00  0.00     0.218 C 
HETATM   20  O   UNL     1     -46.652 -51.458  13.475  1.00  0.00    -0.278 OA
HETATM   21  N   UNL     1     -46.841 -52.395  11.436  1.00  0.00    -0.271 NA
HETATM   22  H   UNL     1     -47.513 -51.668  11.237  1.00  0.00     0.127 HD
HETATM   23  H   UNL     1     -46.218 -52.634  10.664  1.00  0.00     0.127 HD
ENDBRANCH  14  19
ENDBRANCH   2  13
BRANCH   3  24
HETATM   24  C   UNL     1     -40.509 -48.428  10.952  1.00  0.00     0.138 C 
BRANCH  24  25
HETATM   25  C   UNL     1     -39.759 -47.395  11.830  1.00  0.00     0.034 C 
BRANCH  25  26
HETATM   26  C   UNL     1     -40.473 -46.019  11.872  1.00  0.00     0.019 C 
HETATM   27  C   UNL     1     -41.145 -45.608  10.555  1.00  0.00     0.172 C 
HETATM   28  O   UNL     1     -40.668 -44.296  10.231  1.00  0.00    -0.391 OA
HETATM   29  C   UNL     1     -40.234 -43.693  11.450  1.00  0.00     0.168 C 
HETATM   30  C   UNL     1     -39.597 -44.824  12.225  1.00  0.00     0.033 C 
ENDBRANCH  25  26
BRANCH  25  31
HETATM   31  C   UNL     1     -39.523 -48.013  13.225  1.00  0.00     0.170 C 
BRANCH  31  32
HETATM   32  O   UNL     1     -38.503 -49.003  13.175  1.00  0.00    -0.400 OA
HETATM   33  H   UNL     1     -38.263 -49.185  12.252  1.00  0.00     0.209 HD
ENDBRANCH  31  32
ENDBRANCH  25  31
ENDBRANCH  24  25
ENDBRANCH   3  24
TORSDOF 7
ENDMDL
MODEL 8
REMARK VINA RESULT:      -6.4      2.636      4.221
REMARK  7 active torsions:
REMARK  status: ('A' for Active; 'I' for Inactive)
REMARK    1  A    between atoms: N_1  and  C_3 
REMARK    2  A    between atoms: N_4  and  C_15 
REMARK    3  A    between atoms: C_8  and  C_14 
REMARK       I    between atoms: C_14  and  N_24 
REMARK    4  A    between atoms: C_15  and  C_18 
REMARK    5  A    between atoms: C_18  and  C_23 
REMARK    6  A    between atoms: C_18  and  C_26 
REMARK    7  A    between atoms: C_26  and  O_28 
ROOT
HETATM    1  C   UNL     1     -41.642 -49.915  12.131  1.00  0.00     0.122 A 
HETATM    2  C   UNL     1     -40.870 -51.015  12.592  1.00  0.00     0.136 A 
HETATM    3  N   UNL     1     -41.958 -48.054  11.025  1.00  0.00    -0.327 N 
HETATM    4  C   UNL     1     -40.993 -48.964  11.354  1.00  0.00     0.140 A 
HETATM    5  N   UNL     1     -42.976 -49.563  12.298  1.00  0.00    -0.346 N 
ATOM      6  HN  UNL     1     -43.695 -50.079  12.805  1.00  0.00     0.167 HD
HETATM    7  C   UNL     1     -43.112 -48.421  11.659  1.00  0.00     0.185 A 
HETATM    8  N   UNL     1     -39.545 -51.000  12.261  1.00  0.00    -0.337 N 
ATOM      9  HN  UNL     1     -38.929 -51.744  12.588  1.00  0.00     0.168 HD
HETATM   10  N   UNL     1     -39.701 -48.941  10.996  1.00  0.00    -0.336 N 
ATOM     11  HN  UNL     1     -39.273 -48.217  10.418  1.00  0.00     0.168 HD
HETATM   12  C   UNL     1     -39.049 -49.999  11.502  1.00  0.00     0.183 A 
ENDROOT
BRANCH   2  13
HETATM   13  N   UNL     1     -41.369 -52.048  13.371  1.00  0.00    -0.349 N 
HETATM   14  C   UNL     1     -42.000 -53.211  12.712  1.00  0.00     0.174 C 
HETATM   15  C   UNL     1     -41.486 -54.450  13.464  1.00  0.00     0.073 C 
HETATM   16  C   UNL     1     -40.346 -53.951  14.325  1.00  0.00     0.190 C 
HETATM   17  C   UNL     1     -40.642 -52.478  14.565  1.00  0.00     0.162 C 
HETATM   18  F   UNL     1     -39.186 -54.077  13.620  1.00  0.00    -0.248 F 
BRANCH  14  19
HETATM   19  C   UNL     1     -43.531 -53.136  12.870  1.00  0.00     0.218 C 
HETATM   20  O   UNL     1     -44.120 -52.265  13.505  1.00  0.00    -0.278 OA
HETATM   21  N   UNL     1     -44.233 -54.135  12.256  1.00  0.00    -0.271 NA
HETATM   22  H   UNL     1     -45.233 -53.987  12.243  1.00  0.00     0.127 HD
HETATM   23  H   UNL     1     -43.833 -54.472  11.380  1.00  0.00     0.127 HD
ENDBRANCH  14  19
ENDBRANCH   2  13
BRANCH   3  24
HETATM   24  C   UNL     1     -41.780 -46.864  10.220  1.00  0.00     0.138 C 
BRANCH  24  25
HETATM   25  C   UNL     1     -42.690 -45.664  10.585  1.00  0.00     0.034 C 
BRANCH  25  26
HETATM   26  C   UNL     1     -41.886 -44.449  11.117  1.00  0.00     0.019 C 
HETATM   27  C   UNL     1     -40.394 -44.464  10.761  1.00  0.00     0.172 C 
HETATM   28  O   UNL     1     -39.668 -44.285  11.984  1.00  0.00    -0.391 OA
HETATM   29  C   UNL     1     -40.547 -43.637  12.904  1.00  0.00     0.168 C 
HETATM   30  C   UNL     1     -41.901 -44.250  12.627  1.00  0.00     0.033 C 
ENDBRANCH  25  26
BRANCH  25  31
HETATM   31  C   UNL     1     -43.581 -45.333   9.370  1.00  0.00     0.170 C 
BRANCH  31  32
HETATM   32  O   UNL     1     -44.145 -44.032   9.494  1.00  0.00    -0.400 OA
HETATM   33  H   UNL     1     -43.447 -43.386   9.688  1.00  0.00     0.209 HD
ENDBRANCH  31  32
ENDBRANCH  25  31
ENDBRANCH  24  25
ENDBRANCH   3  24
TORSDOF 7
ENDMDL
MODEL 9
REMARK VINA RESULT:      -6.3      3.774      7.930
REMARK  7 active torsions:
REMARK  status: ('A' for Active; 'I' for Inactive)
REMARK    1  A    between atoms: N_1  and  C_3 
REMARK    2  A    between atoms: N_4  and  C_15 
REMARK    3  A    between atoms: C_8  and  C_14 
REMARK       I    between atoms: C_14  and  N_24 
REMARK    4  A    between atoms: C_15  and  C_18 
REMARK    5  A    between atoms: C_18  and  C_23 
REMARK    6  A    between atoms: C_18  and  C_26 
REMARK    7  A    between atoms: C_26  and  O_28 
ROOT
HETATM    1  C   UNL     1     -41.278 -48.144  12.771  1.00  0.00     0.122 A 
HETATM    2  C   UNL     1     -41.168 -46.846  12.204  1.00  0.00     0.136 A 
HETATM    3  N   UNL     1     -41.677 -50.294  12.711  1.00  0.00    -0.327 N 
HETATM    4  C   UNL     1     -41.688 -49.171  11.932  1.00  0.00     0.140 A 
HETATM    5  N   UNL     1     -41.057 -48.636  14.052  1.00  0.00    -0.346 N 
ATOM      6  HN  UNL     1     -40.735 -48.116  14.869  1.00  0.00     0.167 HD
HETATM    7  C   UNL     1     -41.351 -49.916  13.984  1.00  0.00     0.185 A 
HETATM    8  N   UNL     1     -41.525 -46.732  10.890  1.00  0.00    -0.337 N 
ATOM      9  HN  UNL     1     -41.497 -45.821  10.432  1.00  0.00     0.168 HD
HETATM   10  N   UNL     1     -42.020 -49.089  10.635  1.00  0.00    -0.336 N 
ATOM     11  HN  UNL     1     -42.312 -49.879  10.060  1.00  0.00     0.168 HD
HETATM   12  C   UNL     1     -41.914 -47.824  10.198  1.00  0.00     0.183 A 
ENDROOT
BRANCH   2  13
HETATM   13  N   UNL     1     -40.768 -45.718  12.905  1.00  0.00    -0.349 N 
HETATM   14  C   UNL     1     -39.335 -45.525  13.208  1.00  0.00     0.174 C 
HETATM   15  C   UNL     1     -39.046 -44.037  12.946  1.00  0.00     0.073 C 
HETATM   16  C   UNL     1     -40.263 -43.517  12.212  1.00  0.00     0.190 C 
HETATM   17  C   UNL     1     -41.405 -44.429  12.637  1.00  0.00     0.162 C 
HETATM   18  F   UNL     1     -40.047 -43.646  10.873  1.00  0.00    -0.248 F 
BRANCH  14  19
HETATM   19  C   UNL     1     -39.069 -45.827  14.696  1.00  0.00     0.218 C 
HETATM   20  O   UNL     1     -38.713 -46.920  15.128  1.00  0.00    -0.278 OA
HETATM   21  N   UNL     1     -39.269 -44.779  15.551  1.00  0.00    -0.271 NA
HETATM   22  H   UNL     1     -38.947 -44.951  16.494  1.00  0.00     0.127 HD
HETATM   23  H   UNL     1     -39.037 -43.860  15.174  1.00  0.00     0.127 HD
ENDBRANCH  14  19
ENDBRANCH   2  13
BRANCH   3  24
HETATM   24  C   UNL     1     -42.028 -51.635  12.294  1.00  0.00     0.138 C 
BRANCH  24  25
HETATM   25  C   UNL     1     -41.963 -52.720  13.398  1.00  0.00     0.034 C 
BRANCH  25  26
HETATM   26  C   UNL     1     -43.369 -53.183  13.863  1.00  0.00     0.019 C 
HETATM   27  C   UNL     1     -43.360 -54.156  15.049  1.00  0.00     0.172 C 
HETATM   28  O   UNL     1     -44.146 -55.292  14.667  1.00  0.00    -0.391 OA
HETATM   29  C   UNL     1     -45.036 -54.860  13.637  1.00  0.00     0.168 C 
HETATM   30  C   UNL     1     -44.219 -53.889  12.815  1.00  0.00     0.033 C 
ENDBRANCH  25  26
BRANCH  25  31
HETATM   31  C   UNL     1     -41.064 -53.873  12.903  1.00  0.00     0.170 C 
BRANCH  31  32
HETATM   32  O   UNL     1     -40.563 -53.602  11.600  1.00  0.00    -0.400 OA
HETATM   33  H   UNL     1     -41.115 -52.932  11.166  1.00  0.00     0.209 HD
ENDBRANCH  31  32
ENDBRANCH  25  31
ENDBRANCH  24  25
ENDBRANCH   3  24
TORSDOF 7
ENDMDL
