MODEL 1
REMARK VINA RESULT:      -6.5      0.000      0.000
REMARK  5 active torsions:
REMARK  status: ('A' for Active; 'I' for Inactive)
REMARK    1  A    between atoms: C_2  and  C_3 
REMARK    2  A    between atoms: C_6  and  N_7 
REMARK       I    between atoms: N_7  and  C_8 
REMARK       I    between atoms: C_8  and  N_10 
REMARK    3  A    between atoms: N_10  and  C_11 
REMARK    4  A    between atoms: C_13  and  C_14 
REMARK    5  A    between atoms: C_14  and  O_15 
ROOT
HETATM    1  N   UNL     1     -40.548 -49.662  10.863  1.00  0.00    -0.289 N 
HETATM    2  C   UNL     1     -40.900 -50.644  11.754  1.00  0.00     0.322 C 
HETATM    3  O   UNL     1     -40.153 -51.598  11.949  1.00  0.00    -0.247 OA
HETATM    4  N   UNL     1     -42.130 -50.526  12.320  1.00  0.00    -0.335 N 
HETATM    5  H   UNL     1     -39.704 -49.814  10.333  1.00  0.00     0.172 HD
HETATM    6  H   UNL     1     -42.592 -49.626  12.204  1.00  0.00     0.164 HD
ENDROOT
BRANCH   1   7
HETATM    7  C   UNL     1     -41.325 -48.575  10.576  1.00  0.00     0.153 A 
HETATM    8  N   UNL     1     -42.208 -48.480   9.615  1.00  0.00    -0.339 N 
HETATM    9  C   UNL     1     -42.750 -47.210   9.597  1.00  0.00     0.023 A 
ATOM     10  HN  UNL     1     -42.459 -49.233   8.973  1.00  0.00     0.168 HD
HETATM   11  C   UNL     1     -42.216 -46.346  10.540  1.00  0.00     0.005 A 
HETATM   12  S   UNL     1     -41.096 -47.196  11.537  1.00  0.00    -0.057 SA
HETATM   13  C   UNL     1     -42.498 -44.902  10.754  1.00  0.00     0.058 C 
BRANCH   9  14
HETATM   14  C   UNL     1     -43.807 -46.927   8.580  1.00  0.00     0.054 C 
HETATM   15  C   UNL     1     -45.202 -47.248   9.087  1.00  0.00     0.011 C 
ENDBRANCH   9  14
ENDBRANCH   1   7
BRANCH   4  16
HETATM   16  C   UNL     1     -42.766 -51.505  13.151  1.00  0.00     0.109 C 
HETATM   17  C   UNL     1     -44.188 -51.102  13.551  1.00  0.00     0.040 C 
HETATM   18  C   UNL     1     -45.073 -52.340  13.310  1.00  0.00     0.034 C 
HETATM   19  C   UNL     1     -44.248 -53.154  12.354  1.00  0.00    -0.022 C 
HETATM   20  C   UNL     1     -42.990 -52.709  12.292  1.00  0.00    -0.005 C 
BRANCH  18  21
HETATM   21  C   UNL     1     -46.455 -51.961  12.773  1.00  0.00     0.172 C 
BRANCH  21  22
HETATM   22  O   UNL     1     -46.660 -52.500  11.469  1.00  0.00    -0.400 OA
HETATM   23  H   UNL     1     -45.845 -52.345  10.960  1.00  0.00     0.209 HD
ENDBRANCH  21  22
ENDBRANCH  18  21
ENDBRANCH   4  16
TORSDOF 5
ENDMDL
MODEL 2
REMARK VINA RESULT:      -6.0      2.742      5.993
REMARK  5 active torsions:
REMARK  status: ('A' for Active; 'I' for Inactive)
REMARK    1  A    between atoms: C_2  and  C_3 
REMARK    2  A    between atoms: C_6  and  N_7 
REMARK       I    between atoms: N_7  and  C_8 
REMARK       I    between atoms: C_8  and  N_10 
REMARK    3  A    between atoms: N_10  and  C_11 
REMARK    4  A    between atoms: C_13  and  C_14 
REMARK    5  A    between atoms: C_14  and  O_15 
ROOT
HETATM    1  N   UNL     1     -40.634 -51.956  11.810  1.00  0.00    -0.289 N 
HETATM    2  C   UNL     1     -40.630 -50.621  11.490  1.00  0.00     0.322 C 
HETATM    3  O   UNL     1     -39.604 -50.087  11.080  1.00  0.00    -0.247 OA
HETATM    4  N   UNL     1     -41.784 -49.945  11.731  1.00  0.00    -0.335 N 
HETATM    5  H   UNL     1     -39.746 -52.431  11.770  1.00  0.00     0.172 HD
HETATM    6  H   UNL     1     -42.605 -50.514  11.924  1.00  0.00     0.164 HD
ENDROOT
BRANCH   1   7
HETATM    7  C   UNL     1     -41.725 -52.625  12.286  1.00  0.00     0.153 A 
HETATM    8  N   UNL     1     -42.974 -52.419  11.952  1.00  0.00    -0.339 N 
HETATM    9  C   UNL     1     -43.801 -53.245  12.687  1.00  0.00     0.023 A 
ATOM     10  HN  UNL     1     -43.290 -51.747  11.252  1.00  0.00     0.168 HD
HETATM   11  C   UNL     1     -43.142 -54.041  13.611  1.00  0.00     0.005 A 
HETATM   12  S   UNL     1     -41.440 -53.818  13.457  1.00  0.00    -0.057 SA
HETATM   13  C   UNL     1     -43.711 -54.979  14.614  1.00  0.00     0.058 C 
BRANCH   9  14
HETATM   14  C   UNL     1     -45.268 -53.170  12.413  1.00  0.00     0.054 C 
HETATM   15  C   UNL     1     -45.884 -51.868  12.895  1.00  0.00     0.011 C 
ENDBRANCH   9  14
ENDBRANCH   1   7
BRANCH   4  16
HETATM   16  C   UNL     1     -41.960 -48.527  11.623  1.00  0.00     0.109 C 
HETATM   17  C   UNL     1     -41.751 -48.017  10.193  1.00  0.00     0.040 C 
HETATM   18  C   UNL     1     -42.934 -47.076   9.893  1.00  0.00     0.034 C 
HETATM   19  C   UNL     1     -43.954 -47.492  10.914  1.00  0.00    -0.022 C 
HETATM   20  C   UNL     1     -43.412 -48.259  11.863  1.00  0.00    -0.005 C 
BRANCH  18  21
HETATM   21  C   UNL     1     -43.414 -47.203   8.446  1.00  0.00     0.172 C 
BRANCH  21  22
HETATM   22  O   UNL     1     -42.782 -46.235   7.612  1.00  0.00    -0.400 OA
HETATM   23  H   UNL     1     -42.630 -46.653   6.747  1.00  0.00     0.209 HD
ENDBRANCH  21  22
ENDBRANCH  18  21
ENDBRANCH   4  16
TORSDOF 5
ENDMDL
MODEL 3
REMARK VINA RESULT:      -5.7      2.107      2.417
REMARK  5 active torsions:
REMARK  status: ('A' for Active; 'I' for Inactive)
REMARK    1  A    between atoms: C_2  and  C_3 
REMARK    2  A    between atoms: C_6  and  N_7 
REMARK       I    between atoms: N_7  and  C_8 
REMARK       I    between atoms: C_8  and  N_10 
REMARK    3  A    between atoms: N_10  and  C_11 
REMARK    4  A    between atoms: C_13  and  C_14 
REMARK    5  A    between atoms: C_14  and  O_15 
ROOT
HETATM    1  N   UNL     1     -40.690 -50.865  11.836  1.00  0.00    -0.289 N 
HETATM    2  C   UNL     1     -41.204 -52.110  12.103  1.00  0.00     0.322 C 
HETATM    3  O   UNL     1     -40.469 -53.092  12.110  1.00  0.00    -0.247 OA
HETATM    4  N   UNL     1     -42.551 -52.178  12.270  1.00  0.00    -0.335 N 
HETATM    5  H   UNL     1     -39.719 -50.826  11.570  1.00  0.00     0.172 HD
HETATM    6  H   UNL     1     -43.033 -51.290  12.394  1.00  0.00     0.164 HD
ENDROOT
BRANCH   1   7
HETATM    7  C   UNL     1     -41.438 -49.723  11.793  1.00  0.00     0.153 A 
HETATM    8  N   UNL     1     -41.901 -49.133  10.720  1.00  0.00    -0.339 N 
HETATM    9  C   UNL     1     -42.557 -47.969  11.068  1.00  0.00     0.023 A 
ATOM     10  HN  UNL     1     -41.792 -49.481   9.767  1.00  0.00     0.168 HD
HETATM   11  C   UNL     1     -42.534 -47.682  12.424  1.00  0.00     0.005 A 
HETATM   12  S   UNL     1     -41.769 -48.970  13.276  1.00  0.00    -0.057 SA
HETATM   13  C   UNL     1     -43.063 -46.489  13.138  1.00  0.00     0.058 C 
BRANCH   9  14
HETATM   14  C   UNL     1     -43.183 -47.176   9.967  1.00  0.00     0.054 C 
HETATM   15  C   UNL     1     -44.671 -47.450   9.826  1.00  0.00     0.011 C 
ENDBRANCH   9  14
ENDBRANCH   1   7
BRANCH   4  16
HETATM   16  C   UNL     1     -43.317 -53.382  12.402  1.00  0.00     0.109 C 
HETATM   17  C   UNL     1     -43.139 -54.044  13.772  1.00  0.00     0.040 C 
HETATM   18  C   UNL     1     -44.555 -54.398  14.267  1.00  0.00     0.034 C 
HETATM   19  C   UNL     1     -45.429 -53.500  13.439  1.00  0.00    -0.022 C 
HETATM   20  C   UNL     1     -44.755 -52.971  12.413  1.00  0.00    -0.005 C 
BRANCH  18  21
HETATM   21  C   UNL     1     -44.703 -54.191  15.776  1.00  0.00     0.172 C 
BRANCH  21  22
HETATM   22  O   UNL     1     -46.007 -54.562  16.216  1.00  0.00    -0.400 OA
HETATM   23  H   UNL     1     -46.289 -53.904  16.874  1.00  0.00     0.209 HD
ENDBRANCH  21  22
ENDBRANCH  18  21
ENDBRANCH   4  16
TORSDOF 5
ENDMDL
MODEL 4
REMARK VINA RESULT:      -5.7      2.276      3.051
REMARK  5 active torsions:
REMARK  status: ('A' for Active; 'I' for Inactive)
REMARK    1  A    between atoms: C_2  and  C_3 
REMARK    2  A    between atoms: C_6  and  N_7 
REMARK       I    between atoms: N_7  and  C_8 
REMARK       I    between atoms: C_8  and  N_10 
REMARK    3  A    between atoms: N_10  and  C_11 
REMARK    4  A    between atoms: C_13  and  C_14 
REMARK    5  A    between atoms: C_14  and  O_15 
ROOT
HETATM    1  N   UNL     1     -39.911 -49.456  11.227  1.00  0.00    -0.289 N 
HETATM    2  C   UNL     1     -40.210 -50.648  11.838  1.00  0.00     0.322 C 
HETATM    3  O   UNL     1     -39.312 -51.424  12.149  1.00  0.00    -0.247 OA
HETATM    4  N   UNL     1     -41.531 -50.927  11.990  1.00  0.00    -0.335 N 
HETATM    5  H   UNL     1     -38.945 -49.305  10.982  1.00  0.00     0.172 HD
HETATM    6  H   UNL     1     -42.173 -50.153  11.837  1.00  0.00     0.164 HD
ENDROOT
BRANCH   1   7
HETATM    7  C   UNL     1     -40.847 -48.542  10.834  1.00  0.00     0.153 A 
HETATM    8  N   UNL     1     -41.680 -48.660   9.832  1.00  0.00    -0.339 N 
HETATM    9  C   UNL     1     -42.431 -47.508   9.705  1.00  0.00     0.023 A 
ATOM     10  HN  UNL     1     -41.763 -49.482   9.232  1.00  0.00     0.168 HD
HETATM   11  C   UNL     1     -42.106 -46.509  10.610  1.00  0.00     0.005 A 
HETATM   12  S   UNL     1     -40.911 -47.090  11.709  1.00  0.00    -0.057 SA
HETATM   13  C   UNL     1     -42.644 -45.127  10.713  1.00  0.00     0.058 C 
BRANCH   9  14
HETATM   14  C   UNL     1     -43.465 -47.475   8.627  1.00  0.00     0.054 C 
HETATM   15  C   UNL     1     -44.880 -47.537   9.176  1.00  0.00     0.011 C 
ENDBRANCH   9  14
ENDBRANCH   1   7
BRANCH   4  16
HETATM   16  C   UNL     1     -42.074 -52.170  12.453  1.00  0.00     0.109 C 
HETATM   17  C   UNL     1     -41.052 -53.310  12.410  1.00  0.00     0.040 C 
HETATM   18  C   UNL     1     -41.149 -54.029  13.770  1.00  0.00     0.034 C 
HETATM   19  C   UNL     1     -41.804 -52.997  14.643  1.00  0.00    -0.022 C 
HETATM   20  C   UNL     1     -42.326 -52.003  13.918  1.00  0.00    -0.005 C 
BRANCH  18  21
HETATM   21  C   UNL     1     -39.779 -54.490  14.272  1.00  0.00     0.172 C 
BRANCH  21  22
HETATM   22  O   UNL     1     -38.751 -54.134  13.350  1.00  0.00    -0.400 OA
HETATM   23  H   UNL     1     -38.329 -54.958  13.055  1.00  0.00     0.209 HD
ENDBRANCH  21  22
ENDBRANCH  18  21
ENDBRANCH   4  16
TORSDOF 5
ENDMDL
MODEL 5
REMARK VINA RESULT:      -5.7      3.589      7.228
REMARK  5 active torsions:
REMARK  status: ('A' for Active; 'I' for Inactive)
REMARK    1  A    between atoms: C_2  and  C_3 
REMARK    2  A    between atoms: C_6  and  N_7 
REMARK       I    between atoms: N_7  and  C_8 
REMARK       I    between atoms: C_8  and  N_10 
REMARK    3  A    between atoms: N_10  and  C_11 
REMARK    4  A    between atoms: C_13  and  C_14 
REMARK    5  A    between atoms: C_14  and  O_15 
ROOT
HETATM    1  N   UNL     1     -41.852 -49.302  10.756  1.00  0.00    -0.289 N 
HETATM    2  C   UNL     1     -42.132 -48.000  10.426  1.00  0.00     0.322 C 
HETATM    3  O   UNL     1     -43.111 -47.733   9.738  1.00  0.00    -0.247 OA
HETATM    4  N   UNL     1     -41.227 -47.072  10.837  1.00  0.00    -0.335 N 
HETATM    5  H   UNL     1     -42.437 -50.008  10.336  1.00  0.00     0.172 HD
HETATM    6  H   UNL     1     -40.543 -47.385  11.523  1.00  0.00     0.164 HD
ENDROOT
BRANCH   1   7
HETATM    7  C   UNL     1     -40.776 -49.689  11.504  1.00  0.00     0.153 A 
HETATM    8  N   UNL     1     -39.570 -49.940  11.063  1.00  0.00    -0.339 N 
HETATM    9  C   UNL     1     -38.767 -50.364  12.104  1.00  0.00     0.023 A 
ATOM     10  HN  UNL     1     -39.267 -49.839  10.094  1.00  0.00     0.168 HD
HETATM   11  C   UNL     1     -39.417 -50.465  13.324  1.00  0.00     0.005 A 
HETATM   12  S   UNL     1     -41.038 -49.902  13.166  1.00  0.00    -0.057 SA
HETATM   13  C   UNL     1     -38.894 -50.958  14.626  1.00  0.00     0.058 C 
BRANCH   9  14
HETATM   14  C   UNL     1     -37.338 -50.666  11.791  1.00  0.00     0.054 C 
HETATM   15  C   UNL     1     -36.904 -50.102  10.449  1.00  0.00     0.011 C 
ENDBRANCH   9  14
ENDBRANCH   1   7
BRANCH   4  16
HETATM   16  C   UNL     1     -41.230 -45.685  10.477  1.00  0.00     0.109 C 
HETATM   17  C   UNL     1     -41.711 -44.784  11.619  1.00  0.00     0.040 C 
HETATM   18  C   UNL     1     -40.702 -43.622  11.707  1.00  0.00     0.034 C 
HETATM   19  C   UNL     1     -39.497 -44.178  11.002  1.00  0.00    -0.022 C 
HETATM   20  C   UNL     1     -39.798 -45.284  10.316  1.00  0.00    -0.005 C 
BRANCH  18  21
HETATM   21  C   UNL     1     -40.437 -43.202  13.154  1.00  0.00     0.172 C 
BRANCH  21  22
HETATM   22  O   UNL     1     -39.345 -42.288  13.228  1.00  0.00    -0.400 OA
HETATM   23  H   UNL     1     -38.591 -42.768  13.613  1.00  0.00     0.209 HD
ENDBRANCH  21  22
ENDBRANCH  18  21
ENDBRANCH   4  16
TORSDOF 5
ENDMDL
MODEL 6
REMARK VINA RESULT:      -5.6      2.980      5.653
REMARK  5 active torsions:
REMARK  status: ('A' for Active; 'I' for Inactive)
REMARK    1  A    between atoms: C_2  and  C_3 
REMARK    2  A    between atoms: C_6  and  N_7 
REMARK       I    between atoms: N_7  and  C_8 
REMARK       I    between atoms: C_8  and  N_10 
REMARK    3  A    between atoms: N_10  and  C_11 
REMARK    4  A    between atoms: C_13  and  C_14 
REMARK    5  A    between atoms: C_14  and  O_15 
ROOT
HETATM    1  N   UNL     1     -42.571 -53.634  12.719  1.00  0.00    -0.289 N 
HETATM    2  C   UNL     1     -41.474 -52.840  12.494  1.00  0.00     0.322 C 
HETATM    3  O   UNL     1     -40.363 -53.344  12.363  1.00  0.00    -0.247 OA
HETATM    4  N   UNL     1     -41.693 -51.499  12.510  1.00  0.00    -0.335 N 
HETATM    5  H   UNL     1     -42.396 -54.618  12.851  1.00  0.00     0.172 HD
HETATM    6  H   UNL     1     -42.666 -51.203  12.475  1.00  0.00     0.164 HD
ENDROOT
BRANCH   1   7
HETATM    7  C   UNL     1     -43.839 -53.156  12.891  1.00  0.00     0.153 A 
HETATM    8  N   UNL     1     -44.758 -53.034  11.967  1.00  0.00    -0.339 N 
HETATM    9  C   UNL     1     -45.892 -52.456  12.505  1.00  0.00     0.023 A 
ATOM     10  HN  UNL     1     -44.654 -53.322  10.994  1.00  0.00     0.168 HD
HETATM   11  C   UNL     1     -45.779 -52.109  13.843  1.00  0.00     0.005 A 
HETATM   12  S   UNL     1     -44.253 -52.632  14.450  1.00  0.00    -0.057 SA
HETATM   13  C   UNL     1     -46.757 -51.405  14.713  1.00  0.00     0.058 C 
BRANCH   9  14
HETATM   14  C   UNL     1     -47.064 -52.268  11.599  1.00  0.00     0.054 C 
HETATM   15  C   UNL     1     -47.121 -50.872  11.003  1.00  0.00     0.011 C 
ENDBRANCH   9  14
ENDBRANCH   1   7
BRANCH   4  16
HETATM   16  C   UNL     1     -40.681 -50.486  12.456  1.00  0.00     0.109 C 
HETATM   17  C   UNL     1     -40.682 -49.726  11.125  1.00  0.00     0.040 C 
HETATM   18  C   UNL     1     -40.604 -48.229  11.483  1.00  0.00     0.034 C 
HETATM   19  C   UNL     1     -41.064 -48.207  12.913  1.00  0.00    -0.022 C 
HETATM   20  C   UNL     1     -41.079 -49.433  13.441  1.00  0.00    -0.005 C 
BRANCH  18  21
HETATM   21  C   UNL     1     -41.453 -47.371  10.543  1.00  0.00     0.172 C 
BRANCH  21  22
HETATM   22  O   UNL     1     -41.972 -48.152   9.469  1.00  0.00    -0.400 OA
HETATM   23  H   UNL     1     -42.605 -47.594   8.985  1.00  0.00     0.209 HD
ENDBRANCH  21  22
ENDBRANCH  18  21
ENDBRANCH   4  16
TORSDOF 5
ENDMDL
MODEL 7
REMARK VINA RESULT:      -5.5      3.054      4.889
REMARK  5 active torsions:
REMARK  status: ('A' for Active; 'I' for Inactive)
REMARK    1  A    between atoms: C_2  and  C_3 
REMARK    2  A    between atoms: C_6  and  N_7 
REMARK       I    between atoms: N_7  and  C_8 
REMARK       I    between atoms: C_8  and  N_10 
REMARK    3  A    between atoms: N_10  and  C_11 
REMARK    4  A    between atoms: C_13  and  C_14 
REMARK    5  A    between atoms: C_14  and  O_15 
ROOT
HETATM    1  N   UNL     1     -43.406 -53.478  12.079  1.00  0.00    -0.289 N 
HETATM    2  C   UNL     1     -44.397 -53.792  12.975  1.00  0.00     0.322 C 
HETATM    3  O   UNL     1     -45.180 -54.706  12.736  1.00  0.00    -0.247 OA
HETATM    4  N   UNL     1     -44.491 -52.989  14.068  1.00  0.00    -0.335 N 
HETATM    5  H   UNL     1     -43.418 -53.975  11.202  1.00  0.00     0.172 HD
HETATM    6  H   UNL     1     -43.703 -52.367  14.236  1.00  0.00     0.164 HD
ENDROOT
BRANCH   1   7
HETATM    7  C   UNL     1     -42.503 -52.469  12.258  1.00  0.00     0.153 A 
HETATM    8  N   UNL     1     -42.725 -51.188  12.107  1.00  0.00    -0.339 N 
HETATM    9  C   UNL     1     -41.558 -50.480  12.315  1.00  0.00     0.023 A 
ATOM     10  HN  UNL     1     -43.627 -50.773  11.870  1.00  0.00     0.168 HD
HETATM   11  C   UNL     1     -40.449 -51.269  12.582  1.00  0.00     0.005 A 
HETATM   12  S   UNL     1     -40.925 -52.922  12.684  1.00  0.00    -0.057 SA
HETATM   13  C   UNL     1     -39.033 -50.859  12.775  1.00  0.00     0.058 C 
BRANCH   9  14
HETATM   14  C   UNL     1     -41.629 -48.991  12.216  1.00  0.00     0.054 C 
HETATM   15  C   UNL     1     -41.280 -48.483  10.828  1.00  0.00     0.011 C 
ENDBRANCH   9  14
ENDBRANCH   1   7
BRANCH   4  16
HETATM   16  C   UNL     1     -45.536 -53.031  15.048  1.00  0.00     0.109 C 
HETATM   17  C   UNL     1     -45.116 -52.401  16.380  1.00  0.00     0.040 C 
HETATM   18  C   UNL     1     -46.269 -51.468  16.799  1.00  0.00     0.034 C 
HETATM   19  C   UNL     1     -46.994 -51.237  15.503  1.00  0.00    -0.022 C 
HETATM   20  C   UNL     1     -46.608 -52.106  14.565  1.00  0.00    -0.005 C 
BRANCH  18  21
HETATM   21  C   UNL     1     -45.757 -50.187  17.461  1.00  0.00     0.172 C 
BRANCH  21  22
HETATM   22  O   UNL     1     -44.637 -49.660  16.754  1.00  0.00    -0.400 OA
HETATM   23  H   UNL     1     -44.959 -48.919  16.213  1.00  0.00     0.209 HD
ENDBRANCH  21  22
ENDBRANCH  18  21
ENDBRANCH   4  16
TORSDOF 5
ENDMDL
MODEL 8
REMARK VINA RESULT:      -5.4      1.983      5.638
REMARK  5 active torsions:
REMARK  status: ('A' for Active; 'I' for Inactive)
REMARK    1  A    between atoms: C_2  and  C_3 
REMARK    2  A    between atoms: C_6  and  N_7 
REMARK       I    between atoms: N_7  and  C_8 
REMARK       I    between atoms: C_8  and  N_10 
REMARK    3  A    between atoms: N_10  and  C_11 
REMARK    4  A    between atoms: C_13  and  C_14 
REMARK    5  A    between atoms: C_14  and  O_15 
ROOT
HETATM    1  N   UNL     1     -40.944 -51.166  12.251  1.00  0.00    -0.289 N 
HETATM    2  C   UNL     1     -40.708 -50.089  11.435  1.00  0.00     0.322 C 
HETATM    3  O   UNL     1     -39.575 -49.864  11.021  1.00  0.00    -0.247 OA
HETATM    4  N   UNL     1     -41.769 -49.274  11.197  1.00  0.00    -0.335 N 
HETATM    5  H   UNL     1     -40.138 -51.693  12.548  1.00  0.00     0.172 HD
HETATM    6  H   UNL     1     -42.682 -49.638  11.462  1.00  0.00     0.164 HD
ENDROOT
BRANCH   1   7
HETATM    7  C   UNL     1     -42.170 -51.480  12.767  1.00  0.00     0.153 A 
HETATM    8  N   UNL     1     -43.025 -52.342  12.278  1.00  0.00    -0.339 N 
HETATM    9  C   UNL     1     -44.178 -52.343  13.038  1.00  0.00     0.023 A 
ATOM     10  HN  UNL     1     -42.864 -52.926  11.457  1.00  0.00     0.168 HD
HETATM   11  C   UNL     1     -44.180 -51.428  14.079  1.00  0.00     0.005 A 
HETATM   12  S   UNL     1     -42.649 -50.642  14.162  1.00  0.00    -0.057 SA
HETATM   13  C   UNL     1     -45.269 -51.103  15.038  1.00  0.00     0.058 C 
BRANCH   9  14
HETATM   14  C   UNL     1     -45.260 -53.296  12.644  1.00  0.00     0.054 C 
HETATM   15  C   UNL     1     -45.241 -54.571  13.470  1.00  0.00     0.011 C 
ENDBRANCH   9  14
ENDBRANCH   1   7
BRANCH   4  16
HETATM   16  C   UNL     1     -41.721 -48.017  10.510  1.00  0.00     0.109 C 
HETATM   17  C   UNL     1     -42.694 -47.957   9.328  1.00  0.00     0.040 C 
HETATM   18  C   UNL     1     -43.433 -46.610   9.446  1.00  0.00     0.034 C 
HETATM   19  C   UNL     1     -43.224 -46.244  10.888  1.00  0.00    -0.022 C 
HETATM   20  C   UNL     1     -42.275 -46.996  11.451  1.00  0.00    -0.005 C 
BRANCH  18  21
HETATM   21  C   UNL     1     -44.904 -46.726   9.041  1.00  0.00     0.172 C 
BRANCH  21  22
HETATM   22  O   UNL     1     -45.472 -47.940   9.526  1.00  0.00    -0.400 OA
HETATM   23  H   UNL     1     -46.232 -47.702  10.084  1.00  0.00     0.209 HD
ENDBRANCH  21  22
ENDBRANCH  18  21
ENDBRANCH   4  16
TORSDOF 5
ENDMDL
MODEL 9
REMARK VINA RESULT:      -5.4      3.464      5.478
REMARK  5 active torsions:
REMARK  status: ('A' for Active; 'I' for Inactive)
REMARK    1  A    between atoms: C_2  and  C_3 
REMARK    2  A    between atoms: C_6  and  N_7 
REMARK       I    between atoms: N_7  and  C_8 
REMARK       I    between atoms: C_8  and  N_10 
REMARK    3  A    between atoms: N_10  and  C_11 
REMARK    4  A    between atoms: C_13  and  C_14 
REMARK    5  A    between atoms: C_14  and  O_15 
ROOT
HETATM    1  N   UNL     1     -42.444 -51.050  11.975  1.00  0.00    -0.289 N 
HETATM    2  C   UNL     1     -42.584 -52.347  12.402  1.00  0.00     0.322 C 
HETATM    3  O   UNL     1     -43.649 -52.936  12.246  1.00  0.00    -0.247 OA
HETATM    4  N   UNL     1     -41.520 -52.879  13.058  1.00  0.00    -0.335 N 
HETATM    5  H   UNL     1     -43.272 -50.601  11.617  1.00  0.00     0.172 HD
HETATM    6  H   UNL     1     -40.647 -52.359  12.994  1.00  0.00     0.164 HD
ENDROOT
BRANCH   1   7
HETATM    7  C   UNL     1     -41.301 -50.316  12.122  1.00  0.00     0.153 A 
HETATM    8  N   UNL     1     -40.148 -50.543  11.545  1.00  0.00    -0.339 N 
HETATM    9  C   UNL     1     -39.213 -49.626  11.984  1.00  0.00     0.023 A 
ATOM     10  HN  UNL     1     -39.967 -51.286  10.870  1.00  0.00     0.168 HD
HETATM   11  C   UNL     1     -39.685 -48.738  12.938  1.00  0.00     0.005 A 
HETATM   12  S   UNL     1     -41.370 -48.999  13.190  1.00  0.00    -0.057 SA
HETATM   13  C   UNL     1     -38.947 -47.683  13.682  1.00  0.00     0.058 C 
BRANCH   9  14
HETATM   14  C   UNL     1     -37.839 -49.713  11.403  1.00  0.00     0.054 C 
HETATM   15  C   UNL     1     -37.061 -50.908  11.925  1.00  0.00     0.011 C 
ENDBRANCH   9  14
ENDBRANCH   1   7
BRANCH   4  16
HETATM   16  C   UNL     1     -41.498 -54.148  13.723  1.00  0.00     0.109 C 
HETATM   17  C   UNL     1     -40.077 -54.691  13.904  1.00  0.00     0.040 C 
HETATM   18  C   UNL     1     -39.978 -55.165  15.367  1.00  0.00     0.034 C 
HETATM   19  C   UNL     1     -41.107 -54.427  16.030  1.00  0.00    -0.022 C 
HETATM   20  C   UNL     1     -41.941 -53.900  15.130  1.00  0.00    -0.005 C 
BRANCH  18  21
HETATM   21  C   UNL     1     -38.604 -54.872  15.973  1.00  0.00     0.172 C 
BRANCH  21  22
HETATM   22  O   UNL     1     -37.688 -55.928  15.692  1.00  0.00    -0.400 OA
HETATM   23  H   UNL     1     -38.073 -56.463  14.977  1.00  0.00     0.209 HD
ENDBRANCH  21  22
ENDBRANCH  18  21
ENDBRANCH   4  16
TORSDOF 5
ENDMDL
