MODEL 1
REMARK VINA RESULT:      -6.8      0.000      0.000
REMARK  4 active torsions:
REMARK  status: ('A' for Active; 'I' for Inactive)
REMARK    1  A    between atoms: N_5  and  C_6 
REMARK    2  A    between atoms: C_6  and  C_7 
REMARK    3  A    between atoms: C_7  and  O_8 
REMARK    4  A    between atoms: C_7  and  C_9 
ROOT
HETATM    1  C   UNL     1     -43.203 -48.135  11.587  1.00  0.00     0.070 C 
HETATM    2  C   UNL     1     -42.229 -49.263  11.855  1.00  0.00     0.029 A 
HETATM    3  N   UNL     1     -42.735 -50.388  12.256  1.00  0.00    -0.300 N 
ATOM      4  HN  UNL     1     -43.737 -50.481  12.422  1.00  0.00     0.187 HD
HETATM    5  N   UNL     1     -41.889 -51.452  12.452  1.00  0.00    -0.253 N 
HETATM    6  C   UNL     1     -40.511 -51.371  12.322  1.00  0.00     0.283 A 
HETATM    7  O   UNL     1     -39.758 -52.319  12.541  1.00  0.00    -0.265 OA
HETATM    8  C   UNL     1     -39.963 -50.060  11.885  1.00  0.00     0.121 A 
HETATM    9  C   UNL     1     -38.551 -49.969  11.736  1.00  0.00     0.105 C 
HETATM   10  N   UNL     1     -37.408 -49.830  11.595  1.00  0.00    -0.191 NA
HETATM   11  C   UNL     1     -40.774 -49.016  11.643  1.00  0.00    -0.012 A 
HETATM   12  C   UNL     1     -40.336 -47.651  11.199  1.00  0.00     0.052 C 
ENDROOT
BRANCH   5  13
HETATM   13  C   UNL     1     -42.489 -52.720  12.899  1.00  0.00     0.189 C 
BRANCH  13  14
HETATM   14  C   UNL     1     -43.970 -52.920  12.502  1.00  0.00     0.171 C 
BRANCH  14  15
HETATM   15  O   UNL     1     -44.141 -54.286  12.092  1.00  0.00    -0.389 OA
HETATM   16  H   UNL     1     -44.460 -54.212  11.167  1.00  0.00     0.210 HD
ENDBRANCH  14  15
BRANCH  14  17
HETATM   17  C   UNL     1     -45.002 -52.574  13.567  1.00  0.00    -0.028 A 
HETATM   18  C   UNL     1     -46.042 -51.661  13.326  1.00  0.00     0.011 A 
HETATM   19  C   UNL     1     -46.932 -51.304  14.343  1.00  0.00     0.024 A 
HETATM   20  C   UNL     1     -46.808 -51.878  15.606  1.00  0.00     0.034 A 
HETATM   21 CL   UNL     1     -47.872 -51.401  16.870  1.00  0.00    -0.084 Cl
HETATM   22  C   UNL     1     -45.825 -52.829  15.852  1.00  0.00     0.024 A 
HETATM   23  C   UNL     1     -44.935 -53.182  14.834  1.00  0.00     0.011 A 
ENDBRANCH  14  17
ENDBRANCH  13  14
ENDBRANCH   5  13
TORSDOF 4
ENDMDL
MODEL 2
REMARK VINA RESULT:      -6.7      3.245      4.844
REMARK  4 active torsions:
REMARK  status: ('A' for Active; 'I' for Inactive)
REMARK    1  A    between atoms: N_5  and  C_6 
REMARK    2  A    between atoms: C_6  and  C_7 
REMARK    3  A    between atoms: C_7  and  O_8 
REMARK    4  A    between atoms: C_7  and  C_9 
ROOT
HETATM    1  C   UNL     1     -40.010 -52.588  13.439  1.00  0.00     0.070 C 
HETATM    2  C   UNL     1     -41.237 -53.379  13.839  1.00  0.00     0.029 A 
HETATM    3  N   UNL     1     -42.280 -53.264  13.076  1.00  0.00    -0.300 N 
ATOM      4  HN  UNL     1     -42.274 -52.633  12.275  1.00  0.00     0.187 HD
HETATM    5  N   UNL     1     -43.393 -54.011  13.373  1.00  0.00    -0.253 N 
HETATM    6  C   UNL     1     -43.494 -54.826  14.491  1.00  0.00     0.283 A 
HETATM    7  O   UNL     1     -44.511 -55.460  14.771  1.00  0.00    -0.265 OA
HETATM    8  C   UNL     1     -42.290 -54.916  15.356  1.00  0.00     0.121 A 
HETATM    9  C   UNL     1     -42.377 -55.760  16.498  1.00  0.00     0.105 C 
HETATM   10  N   UNL     1     -42.385 -56.431  17.445  1.00  0.00    -0.191 NA
HETATM   11  C   UNL     1     -41.172 -54.229  15.061  1.00  0.00    -0.012 A 
HETATM   12  C   UNL     1     -39.900 -54.243  15.859  1.00  0.00     0.052 C 
ENDROOT
BRANCH   5  13
HETATM   13  C   UNL     1     -44.561 -53.869  12.487  1.00  0.00     0.189 C 
BRANCH  13  14
HETATM   14  C   UNL     1     -45.263 -52.493  12.545  1.00  0.00     0.171 C 
BRANCH  14  15
HETATM   15  O   UNL     1     -46.430 -52.553  11.710  1.00  0.00    -0.389 OA
HETATM   16  H   UNL     1     -46.940 -51.755  11.965  1.00  0.00     0.210 HD
ENDBRANCH  14  15
BRANCH  14  17
HETATM   17  C   UNL     1     -45.652 -51.996  13.932  1.00  0.00    -0.028 A 
HETATM   18  C   UNL     1     -46.855 -52.378  14.547  1.00  0.00     0.011 A 
HETATM   19  C   UNL     1     -47.223 -51.849  15.788  1.00  0.00     0.024 A 
HETATM   20  C   UNL     1     -46.378 -50.954  16.439  1.00  0.00     0.034 A 
HETATM   21 CL   UNL     1     -46.855 -50.266  17.942  1.00  0.00    -0.084 Cl
HETATM   22  C   UNL     1     -45.154 -50.609  15.878  1.00  0.00     0.024 A 
HETATM   23  C   UNL     1     -44.790 -51.136  14.637  1.00  0.00     0.011 A 
ENDBRANCH  14  17
ENDBRANCH  13  14
ENDBRANCH   5  13
TORSDOF 4
ENDMDL
MODEL 3
REMARK VINA RESULT:      -6.5      2.020      2.798
REMARK  4 active torsions:
REMARK  status: ('A' for Active; 'I' for Inactive)
REMARK    1  A    between atoms: N_5  and  C_6 
REMARK    2  A    between atoms: C_6  and  C_7 
REMARK    3  A    between atoms: C_7  and  O_8 
REMARK    4  A    between atoms: C_7  and  C_9 
ROOT
HETATM    1  C   UNL     1     -41.310 -49.625  11.604  1.00  0.00     0.070 C 
HETATM    2  C   UNL     1     -41.565 -50.990  12.207  1.00  0.00     0.029 A 
HETATM    3  N   UNL     1     -42.779 -51.442  12.137  1.00  0.00    -0.300 N 
ATOM      4  HN  UNL     1     -43.525 -50.875  11.733  1.00  0.00     0.187 HD
HETATM    5  N   UNL     1     -43.036 -52.701  12.620  1.00  0.00    -0.253 N 
HETATM    6  C   UNL     1     -42.086 -53.489  13.252  1.00  0.00     0.283 A 
HETATM    7  O   UNL     1     -42.337 -54.599  13.719  1.00  0.00    -0.265 OA
HETATM    8  C   UNL     1     -40.712 -52.931  13.337  1.00  0.00     0.121 A 
HETATM    9  C   UNL     1     -39.727 -53.737  13.971  1.00  0.00     0.105 C 
HETATM   10  N   UNL     1     -38.877 -54.345  14.477  1.00  0.00    -0.191 NA
HETATM   11  C   UNL     1     -40.424 -51.719  12.831  1.00  0.00    -0.012 A 
HETATM   12  C   UNL     1     -39.078 -51.056  12.858  1.00  0.00     0.052 C 
ENDROOT
BRANCH   5  13
HETATM   13  C   UNL     1     -44.420 -53.194  12.521  1.00  0.00     0.189 C 
BRANCH  13  14
HETATM   14  C   UNL     1     -45.514 -52.118  12.709  1.00  0.00     0.171 C 
BRANCH  14  15
HETATM   15  O   UNL     1     -46.718 -52.594  12.087  1.00  0.00    -0.389 OA
HETATM   16  H   UNL     1     -47.151 -53.120  12.792  1.00  0.00     0.210 HD
ENDBRANCH  14  15
BRANCH  14  17
HETATM   17  C   UNL     1     -45.810 -51.705  14.145  1.00  0.00    -0.028 A 
HETATM   18  C   UNL     1     -47.028 -52.015  14.771  1.00  0.00     0.011 A 
HETATM   19  C   UNL     1     -47.304 -51.560  16.064  1.00  0.00     0.024 A 
HETATM   20  C   UNL     1     -46.353 -50.814  16.755  1.00  0.00     0.034 A 
HETATM   21 CL   UNL     1     -46.713 -50.213  18.326  1.00  0.00    -0.084 Cl
HETATM   22  C   UNL     1     -45.116 -50.547  16.180  1.00  0.00     0.024 A 
HETATM   23  C   UNL     1     -44.843 -51.000  14.887  1.00  0.00     0.011 A 
ENDBRANCH  14  17
ENDBRANCH  13  14
ENDBRANCH   5  13
TORSDOF 4
ENDMDL
MODEL 4
REMARK VINA RESULT:      -6.5      2.970      4.249
REMARK  4 active torsions:
REMARK  status: ('A' for Active; 'I' for Inactive)
REMARK    1  A    between atoms: N_5  and  C_6 
REMARK    2  A    between atoms: C_6  and  C_7 
REMARK    3  A    between atoms: C_7  and  O_8 
REMARK    4  A    between atoms: C_7  and  C_9 
ROOT
HETATM    1  C   UNL     1     -42.321 -55.936  16.633  1.00  0.00     0.070 C 
HETATM    2  C   UNL     1     -42.231 -55.056  15.405  1.00  0.00     0.029 A 
HETATM    3  N   UNL     1     -43.301 -54.958  14.677  1.00  0.00    -0.300 N 
ATOM      4  HN  UNL     1     -44.140 -55.490  14.908  1.00  0.00     0.187 HD
HETATM    5  N   UNL     1     -43.277 -54.121  13.589  1.00  0.00    -0.253 N 
HETATM    6  C   UNL     1     -42.147 -53.433  13.175  1.00  0.00     0.283 A 
HETATM    7  O   UNL     1     -42.124 -52.718  12.174  1.00  0.00    -0.265 OA
HETATM    8  C   UNL     1     -40.933 -53.587  14.017  1.00  0.00     0.121 A 
HETATM    9  C   UNL     1     -39.771 -52.874  13.609  1.00  0.00     0.105 C 
HETATM   10  N   UNL     1     -38.790 -52.319  13.330  1.00  0.00    -0.191 NA
HETATM   11  C   UNL     1     -40.943 -54.364  15.114  1.00  0.00    -0.012 A 
HETATM   12  C   UNL     1     -39.782 -54.593  16.036  1.00  0.00     0.052 C 
ENDROOT
BRANCH   5  13
HETATM   13  C   UNL     1     -44.507 -54.022  12.784  1.00  0.00     0.189 C 
BRANCH  13  14
HETATM   14  C   UNL     1     -45.120 -52.605  12.699  1.00  0.00     0.171 C 
BRANCH  14  15
HETATM   15  O   UNL     1     -46.255 -52.664  11.820  1.00  0.00    -0.389 OA
HETATM   16  H   UNL     1     -46.619 -53.563  11.971  1.00  0.00     0.210 HD
ENDBRANCH  14  15
BRANCH  14  17
HETATM   17  C   UNL     1     -45.531 -51.971  14.022  1.00  0.00    -0.028 A 
HETATM   18  C   UNL     1     -44.661 -51.143  14.750  1.00  0.00     0.011 A 
HETATM   19  C   UNL     1     -45.035 -50.634  15.997  1.00  0.00     0.024 A 
HETATM   20  C   UNL     1     -46.294 -50.924  16.516  1.00  0.00     0.034 A 
HETATM   21 CL   UNL     1     -46.734 -50.339  18.073  1.00  0.00    -0.084 Cl
HETATM   22  C   UNL     1     -47.195 -51.691  15.786  1.00  0.00     0.024 A 
HETATM   23  C   UNL     1     -46.818 -52.201  14.541  1.00  0.00     0.011 A 
ENDBRANCH  14  17
ENDBRANCH  13  14
ENDBRANCH   5  13
TORSDOF 4
ENDMDL
MODEL 5
REMARK VINA RESULT:      -6.5      3.629      6.030
REMARK  4 active torsions:
REMARK  status: ('A' for Active; 'I' for Inactive)
REMARK    1  A    between atoms: N_5  and  C_6 
REMARK    2  A    between atoms: C_6  and  C_7 
REMARK    3  A    between atoms: C_7  and  O_8 
REMARK    4  A    between atoms: C_7  and  C_9 
ROOT
HETATM    1  C   UNL     1     -46.644 -51.985  12.335  1.00  0.00     0.070 C 
HETATM    2  C   UNL     1     -45.448 -51.765  13.237  1.00  0.00     0.029 A 
HETATM    3  N   UNL     1     -44.277 -51.923  12.702  1.00  0.00    -0.300 N 
ATOM      4  HN  UNL     1     -44.182 -52.225  11.732  1.00  0.00     0.187 HD
HETATM    5  N   UNL     1     -43.168 -51.674  13.472  1.00  0.00    -0.253 N 
HETATM    6  C   UNL     1     -43.227 -51.338  14.816  1.00  0.00     0.283 A 
HETATM    7  O   UNL     1     -42.226 -51.158  15.509  1.00  0.00    -0.265 OA
HETATM    8  C   UNL     1     -44.584 -51.190  15.403  1.00  0.00     0.121 A 
HETATM    9  C   UNL     1     -44.656 -50.833  16.778  1.00  0.00     0.105 C 
HETATM   10  N   UNL     1     -44.783 -50.544  17.895  1.00  0.00    -0.191 NA
HETATM   11  C   UNL     1     -45.686 -51.384  14.658  1.00  0.00    -0.012 A 
HETATM   12  C   UNL     1     -47.102 -51.262  15.141  1.00  0.00     0.052 C 
ENDROOT
BRANCH   5  13
HETATM   13  C   UNL     1     -41.850 -51.852  12.839  1.00  0.00     0.189 C 
BRANCH  13  14
HETATM   14  C   UNL     1     -41.423 -53.321  12.618  1.00  0.00     0.171 C 
BRANCH  14  15
HETATM   15  O   UNL     1     -40.487 -53.353  11.528  1.00  0.00    -0.389 OA
HETATM   16  H   UNL     1     -40.654 -54.223  11.105  1.00  0.00     0.210 HD
ENDBRANCH  14  15
BRANCH  14  17
HETATM   17  C   UNL     1     -40.827 -54.035  13.824  1.00  0.00    -0.028 A 
HETATM   18  C   UNL     1     -39.440 -54.172  13.996  1.00  0.00     0.011 A 
HETATM   19  C   UNL     1     -38.920 -54.897  15.073  1.00  0.00     0.024 A 
HETATM   20  C   UNL     1     -39.782 -55.468  16.005  1.00  0.00     0.034 A 
HETATM   21 CL   UNL     1     -39.144 -56.401  17.302  1.00  0.00    -0.084 Cl
HETATM   22  C   UNL     1     -41.157 -55.294  15.891  1.00  0.00     0.024 A 
HETATM   23  C   UNL     1     -41.674 -54.572  14.812  1.00  0.00     0.011 A 
ENDBRANCH  14  17
ENDBRANCH  13  14
ENDBRANCH   5  13
TORSDOF 4
ENDMDL
MODEL 6
REMARK VINA RESULT:      -6.5      4.925      6.653
REMARK  4 active torsions:
REMARK  status: ('A' for Active; 'I' for Inactive)
REMARK    1  A    between atoms: N_5  and  C_6 
REMARK    2  A    between atoms: C_6  and  C_7 
REMARK    3  A    between atoms: C_7  and  O_8 
REMARK    4  A    between atoms: C_7  and  C_9 
ROOT
HETATM    1  C   UNL     1     -39.186 -44.927   9.643  1.00  0.00     0.070 C 
HETATM    2  C   UNL     1     -40.321 -45.408  10.523  1.00  0.00     0.029 A 
HETATM    3  N   UNL     1     -40.690 -46.643  10.376  1.00  0.00    -0.300 N 
ATOM      4  HN  UNL     1     -40.258 -47.237   9.667  1.00  0.00     0.187 HD
HETATM    5  N   UNL     1     -41.675 -47.133  11.198  1.00  0.00    -0.253 N 
HETATM    6  C   UNL     1     -42.356 -46.359  12.125  1.00  0.00     0.283 A 
HETATM    7  O   UNL     1     -43.266 -46.797  12.828  1.00  0.00    -0.265 OA
HETATM    8  C   UNL     1     -41.924 -44.943  12.250  1.00  0.00     0.121 A 
HETATM    9  C   UNL     1     -42.606 -44.143  13.208  1.00  0.00     0.105 C 
HETATM   10  N   UNL     1     -43.123 -43.438  13.972  1.00  0.00    -0.191 NA
HETATM   11  C   UNL     1     -40.930 -44.451  11.489  1.00  0.00    -0.012 A 
HETATM   12  C   UNL     1     -40.412 -43.043  11.528  1.00  0.00     0.052 C 
ENDROOT
BRANCH   5  13
HETATM   13  C   UNL     1     -42.070 -48.540  11.017  1.00  0.00     0.189 C 
BRANCH  13  14
HETATM   14  C   UNL     1     -40.991 -49.578  11.402  1.00  0.00     0.171 C 
BRANCH  14  15
HETATM   15  O   UNL     1     -40.200 -49.852  10.235  1.00  0.00    -0.389 OA
HETATM   16  H   UNL     1     -40.709 -49.436   9.506  1.00  0.00     0.210 HD
ENDBRANCH  14  15
BRANCH  14  17
HETATM   17  C   UNL     1     -40.078 -49.198  12.561  1.00  0.00    -0.028 A 
HETATM   18  C   UNL     1     -38.720 -48.893  12.368  1.00  0.00     0.011 A 
HETATM   19  C   UNL     1     -37.887 -48.620  13.456  1.00  0.00     0.024 A 
HETATM   20  C   UNL     1     -38.408 -48.623  14.748  1.00  0.00     0.034 A 
HETATM   21 CL   UNL     1     -37.371 -48.337  16.090  1.00  0.00    -0.084 Cl
HETATM   22  C   UNL     1     -39.761 -48.861  14.958  1.00  0.00     0.024 A 
HETATM   23  C   UNL     1     -40.592 -49.136  13.869  1.00  0.00     0.011 A 
ENDBRANCH  14  17
ENDBRANCH  13  14
ENDBRANCH   5  13
TORSDOF 4
ENDMDL
MODEL 7
REMARK VINA RESULT:      -6.4      3.090      6.476
REMARK  4 active torsions:
REMARK  status: ('A' for Active; 'I' for Inactive)
REMARK    1  A    between atoms: N_5  and  C_6 
REMARK    2  A    between atoms: C_6  and  C_7 
REMARK    3  A    between atoms: C_7  and  O_8 
REMARK    4  A    between atoms: C_7  and  C_9 
ROOT
HETATM    1  C   UNL     1     -45.824 -51.594  13.182  1.00  0.00     0.070 C 
HETATM    2  C   UNL     1     -44.520 -52.357  13.278  1.00  0.00     0.029 A 
HETATM    3  N   UNL     1     -43.553 -51.960  12.510  1.00  0.00    -0.300 N 
ATOM      4  HN  UNL     1     -43.692 -51.198  11.846  1.00  0.00     0.187 HD
HETATM    5  N   UNL     1     -42.337 -52.589  12.613  1.00  0.00    -0.253 N 
HETATM    6  C   UNL     1     -42.104 -53.680  13.436  1.00  0.00     0.283 A 
HETATM    7  O   UNL     1     -41.023 -54.264  13.489  1.00  0.00    -0.265 OA
HETATM    8  C   UNL     1     -43.241 -54.124  14.284  1.00  0.00     0.121 A 
HETATM    9  C   UNL     1     -43.009 -55.235  15.142  1.00  0.00     0.105 C 
HETATM   10  N   UNL     1     -42.885 -56.135  15.864  1.00  0.00    -0.191 NA
HETATM   11  C   UNL     1     -44.428 -53.496  14.236  1.00  0.00    -0.012 A 
HETATM   12  C   UNL     1     -45.642 -53.854  15.042  1.00  0.00     0.052 C 
ENDROOT
BRANCH   5  13
HETATM   13  C   UNL     1     -41.253 -52.114  11.736  1.00  0.00     0.189 C 
BRANCH  13  14
HETATM   14  C   UNL     1     -40.301 -51.077  12.375  1.00  0.00     0.171 C 
BRANCH  14  15
HETATM   15  O   UNL     1     -38.951 -51.497  12.121  1.00  0.00    -0.389 OA
HETATM   16  H   UNL     1     -38.440 -50.660  12.134  1.00  0.00     0.210 HD
ENDBRANCH  14  15
BRANCH  14  17
HETATM   17  C   UNL     1     -40.480 -49.634  11.925  1.00  0.00    -0.028 A 
HETATM   18  C   UNL     1     -41.634 -49.204  11.249  1.00  0.00     0.011 A 
HETATM   19  C   UNL     1     -41.741 -47.891  10.781  1.00  0.00     0.024 A 
HETATM   20  C   UNL     1     -40.708 -46.986  11.008  1.00  0.00     0.034 A 
HETATM   21 CL   UNL     1     -40.820 -45.386  10.389  1.00  0.00    -0.084 Cl
HETATM   22  C   UNL     1     -39.583 -47.371  11.729  1.00  0.00     0.024 A 
HETATM   23  C   UNL     1     -39.477 -48.685  12.193  1.00  0.00     0.011 A 
ENDBRANCH  14  17
ENDBRANCH  13  14
ENDBRANCH   5  13
TORSDOF 4
ENDMDL
MODEL 8
REMARK VINA RESULT:      -6.3      3.066      3.883
REMARK  4 active torsions:
REMARK  status: ('A' for Active; 'I' for Inactive)
REMARK    1  A    between atoms: N_5  and  C_6 
REMARK    2  A    between atoms: C_6  and  C_7 
REMARK    3  A    between atoms: C_7  and  O_8 
REMARK    4  A    between atoms: C_7  and  C_9 
ROOT
HETATM    1  C   UNL     1     -42.611 -47.832   9.595  1.00  0.00     0.070 C 
HETATM    2  C   UNL     1     -41.619 -48.107  10.705  1.00  0.00     0.029 A 
HETATM    3  N   UNL     1     -41.377 -49.352  10.976  1.00  0.00    -0.300 N 
ATOM      4  HN  UNL     1     -41.873 -50.099  10.489  1.00  0.00     0.187 HD
HETATM    5  N   UNL     1     -40.439 -49.642  11.936  1.00  0.00    -0.253 N 
HETATM    6  C   UNL     1     -39.789 -48.676  12.690  1.00  0.00     0.283 A 
HETATM    7  O   UNL     1     -38.980 -48.948  13.576  1.00  0.00    -0.265 OA
HETATM    8  C   UNL     1     -40.107 -47.261  12.369  1.00  0.00     0.121 A 
HETATM    9  C   UNL     1     -39.436 -46.262  13.127  1.00  0.00     0.105 C 
HETATM   10  N   UNL     1     -38.922 -45.399  13.710  1.00  0.00    -0.191 NA
HETATM   11  C   UNL     1     -40.989 -46.950  11.403  1.00  0.00    -0.012 A 
HETATM   12  C   UNL     1     -41.387 -45.562  10.994  1.00  0.00     0.052 C 
ENDROOT
BRANCH   5  13
HETATM   13  C   UNL     1     -40.176 -51.063  12.219  1.00  0.00     0.189 C 
BRANCH  13  14
HETATM   14  C   UNL     1     -41.389 -52.003  12.028  1.00  0.00     0.171 C 
BRANCH  14  15
HETATM   15  O   UNL     1     -41.259 -52.643  10.748  1.00  0.00    -0.389 OA
HETATM   16  H   UNL     1     -41.328 -53.599  10.958  1.00  0.00     0.210 HD
ENDBRANCH  14  15
BRANCH  14  17
HETATM   17  C   UNL     1     -41.597 -53.058  13.107  1.00  0.00    -0.028 A 
HETATM   18  C   UNL     1     -42.824 -53.721  13.271  1.00  0.00     0.011 A 
HETATM   19  C   UNL     1     -43.012 -54.630  14.317  1.00  0.00     0.024 A 
HETATM   20  C   UNL     1     -41.965 -54.907  15.193  1.00  0.00     0.034 A 
HETATM   21 CL   UNL     1     -42.213 -55.987  16.508  1.00  0.00    -0.084 Cl
HETATM   22  C   UNL     1     -40.723 -54.309  15.013  1.00  0.00     0.024 A 
HETATM   23  C   UNL     1     -40.539 -53.398  13.970  1.00  0.00     0.011 A 
ENDBRANCH  14  17
ENDBRANCH  13  14
ENDBRANCH   5  13
TORSDOF 4
ENDMDL
MODEL 9
REMARK VINA RESULT:      -6.3      3.418      6.980
REMARK  4 active torsions:
REMARK  status: ('A' for Active; 'I' for Inactive)
REMARK    1  A    between atoms: N_5  and  C_6 
REMARK    2  A    between atoms: C_6  and  C_7 
REMARK    3  A    between atoms: C_7  and  O_8 
REMARK    4  A    between atoms: C_7  and  C_9 
ROOT
HETATM    1  C   UNL     1     -39.719 -54.652  15.831  1.00  0.00     0.070 C 
HETATM    2  C   UNL     1     -40.812 -54.220  14.876  1.00  0.00     0.029 A 
HETATM    3  N   UNL     1     -40.473 -53.393  13.936  1.00  0.00    -0.300 N 
ATOM      4  HN  UNL     1     -39.522 -53.026  13.881  1.00  0.00     0.187 HD
HETATM    5  N   UNL     1     -41.422 -53.025  13.015  1.00  0.00    -0.253 N 
HETATM    6  C   UNL     1     -42.748 -53.425  13.079  1.00  0.00     0.283 A 
HETATM    7  O   UNL     1     -43.601 -53.056  12.272  1.00  0.00    -0.265 OA
HETATM    8  C   UNL     1     -43.108 -54.352  14.182  1.00  0.00     0.121 A 
HETATM    9  C   UNL     1     -44.463 -54.780  14.249  1.00  0.00     0.105 C 
HETATM   10  N   UNL     1     -45.552 -55.165  14.359  1.00  0.00    -0.191 NA
HETATM   11  C   UNL     1     -42.186 -54.764  15.070  1.00  0.00    -0.012 A 
HETATM   12  C   UNL     1     -42.433 -55.695  16.221  1.00  0.00     0.052 C 
ENDROOT
BRANCH   5  13
HETATM   13  C   UNL     1     -41.009 -52.092  11.953  1.00  0.00     0.189 C 
BRANCH  13  14
HETATM   14  C   UNL     1     -40.014 -50.995  12.395  1.00  0.00     0.171 C 
BRANCH  14  15
HETATM   15  O   UNL     1     -38.704 -51.373  11.944  1.00  0.00    -0.389 OA
HETATM   16  H   UNL     1     -38.805 -51.442  10.970  1.00  0.00     0.210 HD
ENDBRANCH  14  15
BRANCH  14  17
HETATM   17  C   UNL     1     -40.326 -49.579  11.929  1.00  0.00    -0.028 A 
HETATM   18  C   UNL     1     -41.471 -49.281  11.172  1.00  0.00     0.011 A 
HETATM   19  C   UNL     1     -41.696 -47.987  10.693  1.00  0.00     0.024 A 
HETATM   20  C   UNL     1     -40.791 -46.970  10.990  1.00  0.00     0.034 A 
HETATM   21 CL   UNL     1     -41.042 -45.390  10.358  1.00  0.00    -0.084 Cl
HETATM   22  C   UNL     1     -39.683 -47.227  11.789  1.00  0.00     0.024 A 
HETATM   23  C   UNL     1     -39.459 -48.522  12.264  1.00  0.00     0.011 A 
ENDBRANCH  14  17
ENDBRANCH  13  14
ENDBRANCH   5  13
TORSDOF 4
ENDMDL
