MODEL 1
REMARK VINA RESULT:      -6.4      0.000      0.000
REMARK  3 active torsions:
REMARK  status: ('A' for Active; 'I' for Inactive)
REMARK    1  A    between atoms: C_6  and  N_7 
REMARK       I    between atoms: N_7  and  C_8 
REMARK    2  A    between atoms: C_8  and  C_10 
REMARK    3  A    between atoms: C_10  and  N_11 
ROOT
HETATM    1  N   UNL     1     -41.079 -49.712  11.257  1.00  0.00    -0.355 N 
HETATM    2  C   UNL     1     -41.612 -50.573  12.200  1.00  0.00     0.237 C 
HETATM    3  O   UNL     1     -42.222 -50.175  13.192  1.00  0.00    -0.272 OA
HETATM    4  H   UNL     1     -40.590 -50.103  10.453  1.00  0.00     0.162 HD
ENDROOT
BRANCH   2   5
HETATM    5  C   UNL     1     -41.285 -52.050  12.005  1.00  0.00     0.255 C 
BRANCH   5   6
HETATM    6  N   UNL     1     -42.319 -52.937  12.533  1.00  0.00    -0.248 N 
HETATM    7  N   UNL     1     -43.566 -52.819  11.962  1.00  0.00    -0.305 N 
HETATM    8  C   UNL     1     -44.512 -53.546  12.459  1.00  0.00     0.133 A 
ATOM      9  HN  UNL     1     -43.736 -52.185  11.181  1.00  0.00     0.186 HD
HETATM   10  C   UNL     1     -44.376 -54.464  13.595  1.00  0.00     0.078 A 
HETATM   11 CL   UNL     1     -45.794 -55.277  14.117  1.00  0.00    -0.081 Cl
HETATM   12  C   UNL     1     -43.161 -54.585  14.133  1.00  0.00     0.126 A 
HETATM   13 CL   UNL     1     -42.827 -55.610  15.481  1.00  0.00    -0.076 Cl
HETATM   14  C   UNL     1     -42.017 -53.813  13.569  1.00  0.00     0.285 A 
HETATM   15  O   UNL     1     -40.871 -53.960  13.992  1.00  0.00    -0.265 OA
ENDBRANCH   5   6
ENDBRANCH   2   5
BRANCH   1  16
HETATM   16  C   UNL     1     -41.271 -48.270  11.358  1.00  0.00     0.088 C 
HETATM   17  C   UNL     1     -42.017 -47.749  10.121  1.00  0.00     0.025 C 
HETATM   18  C   UNL     1     -42.256 -46.244  10.191  1.00  0.00     0.002 C 
HETATM   19  C   UNL     1     -40.957 -45.477  10.424  1.00  0.00     0.005 C 
HETATM   20  C   UNL     1     -40.177 -45.977  11.653  1.00  0.00    -0.013 C 
HETATM   21  C   UNL     1     -40.875 -45.541  12.950  1.00  0.00     0.010 C 
HETATM   22  C   UNL     1     -39.938 -47.510  11.550  1.00  0.00     0.008 C 
HETATM   23  C   UNL     1     -39.135 -48.039  12.742  1.00  0.00     0.012 C 
ENDBRANCH   1  16
TORSDOF 3
ENDMDL
MODEL 2
REMARK VINA RESULT:      -6.2      3.905      7.540
REMARK  3 active torsions:
REMARK  status: ('A' for Active; 'I' for Inactive)
REMARK    1  A    between atoms: C_6  and  N_7 
REMARK       I    between atoms: N_7  and  C_8 
REMARK    2  A    between atoms: C_8  and  C_10 
REMARK    3  A    between atoms: C_10  and  N_11 
ROOT
HETATM    1  N   UNL     1     -42.925 -52.099  12.435  1.00  0.00    -0.355 N 
HETATM    2  C   UNL     1     -42.151 -51.023  12.830  1.00  0.00     0.237 C 
HETATM    3  O   UNL     1     -42.224 -50.532  13.956  1.00  0.00    -0.272 OA
HETATM    4  H   UNL     1     -42.815 -52.465  11.490  1.00  0.00     0.162 HD
ENDROOT
BRANCH   2   5
HETATM    5  C   UNL     1     -41.290 -50.392  11.740  1.00  0.00     0.255 C 
BRANCH   5   6
HETATM    6  N   UNL     1     -41.636 -48.998  11.476  1.00  0.00    -0.248 N 
HETATM    7  N   UNL     1     -42.978 -48.721  11.353  1.00  0.00    -0.305 N 
HETATM    8  C   UNL     1     -43.304 -47.506  11.053  1.00  0.00     0.133 A 
ATOM      9  HN  UNL     1     -43.686 -49.442  11.493  1.00  0.00     0.186 HD
HETATM   10  C   UNL     1     -42.364 -46.407  10.805  1.00  0.00     0.078 A 
HETATM   11 CL   UNL     1     -43.033 -44.892  10.358  1.00  0.00    -0.081 Cl
HETATM   12  C   UNL     1     -41.065 -46.680  10.942  1.00  0.00     0.126 A 
HETATM   13 CL   UNL     1     -39.825 -45.508  10.677  1.00  0.00    -0.076 Cl
HETATM   14  C   UNL     1     -40.629 -48.049  11.340  1.00  0.00     0.285 A 
HETATM   15  O   UNL     1     -39.445 -48.312  11.548  1.00  0.00    -0.265 OA
ENDBRANCH   5   6
ENDBRANCH   2   5
BRANCH   1  16
HETATM   16  C   UNL     1     -43.834 -52.757  13.366  1.00  0.00     0.088 C 
HETATM   17  C   UNL     1     -43.387 -54.207  13.603  1.00  0.00     0.025 C 
HETATM   18  C   UNL     1     -44.301 -54.932  14.587  1.00  0.00     0.002 C 
HETATM   19  C   UNL     1     -45.763 -54.862  14.155  1.00  0.00     0.005 C 
HETATM   20  C   UNL     1     -46.245 -53.423  13.900  1.00  0.00    -0.013 C 
HETATM   21  C   UNL     1     -46.416 -52.668  15.227  1.00  0.00     0.010 C 
HETATM   22  C   UNL     1     -45.304 -52.712  12.887  1.00  0.00     0.008 C 
HETATM   23  C   UNL     1     -45.772 -51.285  12.584  1.00  0.00     0.012 C 
ENDBRANCH   1  16
TORSDOF 3
ENDMDL
MODEL 3
REMARK VINA RESULT:      -6.0      3.025      4.142
REMARK  3 active torsions:
REMARK  status: ('A' for Active; 'I' for Inactive)
REMARK    1  A    between atoms: C_6  and  N_7 
REMARK       I    between atoms: N_7  and  C_8 
REMARK    2  A    between atoms: C_8  and  C_10 
REMARK    3  A    between atoms: C_10  and  N_11 
ROOT
HETATM    1  N   UNL     1     -40.357 -52.359  14.325  1.00  0.00    -0.355 N 
HETATM    2  C   UNL     1     -40.385 -53.706  14.009  1.00  0.00     0.237 C 
HETATM    3  O   UNL     1     -39.560 -54.230  13.263  1.00  0.00    -0.272 OA
HETATM    4  H   UNL     1     -41.065 -51.985  14.955  1.00  0.00     0.162 HD
ENDROOT
BRANCH   2   5
HETATM    5  C   UNL     1     -41.587 -54.483  14.540  1.00  0.00     0.255 C 
BRANCH   5   6
HETATM    6  N   UNL     1     -42.852 -54.046  13.954  1.00  0.00    -0.248 N 
HETATM    7  N   UNL     1     -42.787 -53.564  12.666  1.00  0.00    -0.305 N 
HETATM    8  C   UNL     1     -43.882 -53.109  12.152  1.00  0.00     0.133 A 
ATOM      9  HN  UNL     1     -41.913 -53.566  12.140  1.00  0.00     0.186 HD
HETATM   10  C   UNL     1     -45.179 -53.038  12.834  1.00  0.00     0.078 A 
HETATM   11 CL   UNL     1     -46.481 -52.333  11.966  1.00  0.00    -0.081 Cl
HETATM   12  C   UNL     1     -45.238 -53.522  14.076  1.00  0.00     0.126 A 
HETATM   13 CL   UNL     1     -46.679 -53.505  15.026  1.00  0.00    -0.076 Cl
HETATM   14  C   UNL     1     -44.020 -54.110  14.704  1.00  0.00     0.285 A 
HETATM   15  O   UNL     1     -44.059 -54.632  15.818  1.00  0.00    -0.265 OA
ENDBRANCH   5   6
ENDBRANCH   2   5
BRANCH   1  16
HETATM   16  C   UNL     1     -39.292 -51.492  13.834  1.00  0.00     0.088 C 
HETATM   17  C   UNL     1     -38.461 -50.960  15.010  1.00  0.00     0.025 C 
HETATM   18  C   UNL     1     -37.321 -50.059  14.541  1.00  0.00     0.002 C 
HETATM   19  C   UNL     1     -37.829 -48.923  13.657  1.00  0.00     0.005 C 
HETATM   20  C   UNL     1     -38.674 -49.418  12.470  1.00  0.00    -0.013 C 
HETATM   21  C   UNL     1     -37.782 -50.083  11.411  1.00  0.00     0.010 C 
HETATM   22  C   UNL     1     -39.833 -50.323  12.976  1.00  0.00     0.008 C 
HETATM   23  C   UNL     1     -40.717 -50.810  11.824  1.00  0.00     0.012 C 
ENDBRANCH   1  16
TORSDOF 3
ENDMDL
MODEL 4
REMARK VINA RESULT:      -6.0      3.838      7.310
REMARK  3 active torsions:
REMARK  status: ('A' for Active; 'I' for Inactive)
REMARK    1  A    between atoms: C_6  and  N_7 
REMARK       I    between atoms: N_7  and  C_8 
REMARK    2  A    between atoms: C_8  and  C_10 
REMARK    3  A    between atoms: C_10  and  N_11 
ROOT
HETATM    1  N   UNL     1     -42.832 -51.528  13.609  1.00  0.00    -0.355 N 
HETATM    2  C   UNL     1     -41.927 -51.707  12.578  1.00  0.00     0.237 C 
HETATM    3  O   UNL     1     -42.083 -52.552  11.698  1.00  0.00    -0.272 OA
HETATM    4  H   UNL     1     -42.650 -50.806  14.306  1.00  0.00     0.162 HD
ENDROOT
BRANCH   2   5
HETATM    5  C   UNL     1     -40.650 -50.878  12.670  1.00  0.00     0.255 C 
BRANCH   5   6
HETATM    6  N   UNL     1     -40.817 -49.516  12.167  1.00  0.00    -0.248 N 
HETATM    7  N   UNL     1     -41.588 -49.380  11.035  1.00  0.00    -0.305 N 
HETATM    8  C   UNL     1     -41.694 -48.193  10.534  1.00  0.00     0.133 A 
ATOM      9  HN  UNL     1     -42.054 -50.181  10.609  1.00  0.00     0.186 HD
HETATM   10  C   UNL     1     -41.042 -46.986  11.054  1.00  0.00     0.078 A 
HETATM   11 CL   UNL     1     -41.282 -45.530  10.180  1.00  0.00    -0.081 Cl
HETATM   12  C   UNL     1     -40.310 -47.123  12.161  1.00  0.00     0.126 A 
HETATM   13 CL   UNL     1     -39.465 -45.810  12.899  1.00  0.00    -0.076 Cl
HETATM   14  C   UNL     1     -40.193 -48.457  12.816  1.00  0.00     0.285 A 
HETATM   15  O   UNL     1     -39.589 -48.602  13.879  1.00  0.00    -0.265 OA
ENDBRANCH   5   6
ENDBRANCH   2   5
BRANCH   1  16
HETATM   16  C   UNL     1     -44.068 -52.300  13.671  1.00  0.00     0.088 C 
HETATM   17  C   UNL     1     -45.278 -51.356  13.702  1.00  0.00     0.025 C 
HETATM   18  C   UNL     1     -46.597 -52.122  13.748  1.00  0.00     0.002 C 
HETATM   19  C   UNL     1     -46.632 -53.113  14.909  1.00  0.00     0.005 C 
HETATM   20  C   UNL     1     -45.429 -54.072  14.915  1.00  0.00    -0.013 C 
HETATM   21  C   UNL     1     -45.560 -55.110  13.791  1.00  0.00     0.010 C 
HETATM   22  C   UNL     1     -44.100 -53.266  14.878  1.00  0.00     0.008 C 
HETATM   23  C   UNL     1     -42.877 -54.188  14.917  1.00  0.00     0.012 C 
ENDBRANCH   1  16
TORSDOF 3
ENDMDL
MODEL 5
REMARK VINA RESULT:      -5.8      3.748      6.760
REMARK  3 active torsions:
REMARK  status: ('A' for Active; 'I' for Inactive)
REMARK    1  A    between atoms: C_6  and  N_7 
REMARK       I    between atoms: N_7  and  C_8 
REMARK    2  A    between atoms: C_8  and  C_10 
REMARK    3  A    between atoms: C_10  and  N_11 
ROOT
HETATM    1  N   UNL     1     -43.174 -53.205  13.286  1.00  0.00    -0.355 N 
HETATM    2  C   UNL     1     -42.004 -53.867  13.615  1.00  0.00     0.237 C 
HETATM    3  O   UNL     1     -41.866 -54.484  14.670  1.00  0.00    -0.272 OA
HETATM    4  H   UNL     1     -43.230 -52.717  12.393  1.00  0.00     0.162 HD
ENDROOT
BRANCH   2   5
HETATM    5  C   UNL     1     -40.843 -53.677  12.644  1.00  0.00     0.255 C 
BRANCH   5   6
HETATM    6  N   UNL     1     -40.413 -52.285  12.537  1.00  0.00    -0.248 N 
HETATM    7  N   UNL     1     -41.008 -51.544  11.542  1.00  0.00    -0.305 N 
HETATM    8  C   UNL     1     -40.593 -50.329  11.385  1.00  0.00     0.133 A 
ATOM      9  HN  UNL     1     -41.743 -51.935  10.953  1.00  0.00     0.186 HD
HETATM   10  C   UNL     1     -39.526 -49.685  12.159  1.00  0.00     0.078 A 
HETATM   11 CL   UNL     1     -39.106 -48.079  11.725  1.00  0.00    -0.081 Cl
HETATM   12  C   UNL     1     -38.966 -50.404  13.132  1.00  0.00     0.126 A 
HETATM   13 CL   UNL     1     -37.689 -49.806  14.129  1.00  0.00    -0.076 Cl
HETATM   14  C   UNL     1     -39.438 -51.794  13.397  1.00  0.00     0.285 A 
HETATM   15  O   UNL     1     -38.995 -52.456  14.335  1.00  0.00    -0.265 OA
ENDBRANCH   5   6
ENDBRANCH   2   5
BRANCH   1  16
HETATM   16  C   UNL     1     -44.342 -53.259  14.158  1.00  0.00     0.088 C 
HETATM   17  C   UNL     1     -45.214 -54.471  13.797  1.00  0.00     0.025 C 
HETATM   18  C   UNL     1     -46.441 -54.579  14.696  1.00  0.00     0.002 C 
HETATM   19  C   UNL     1     -47.254 -53.286  14.697  1.00  0.00     0.005 C 
HETATM   20  C   UNL     1     -46.412 -52.048  15.047  1.00  0.00    -0.013 C 
HETATM   21  C   UNL     1     -46.062 -52.037  16.542  1.00  0.00     0.010 C 
HETATM   22  C   UNL     1     -45.175 -51.957  14.109  1.00  0.00     0.008 C 
HETATM   23  C   UNL     1     -44.328 -50.715  14.407  1.00  0.00     0.012 C 
ENDBRANCH   1  16
TORSDOF 3
ENDMDL
MODEL 6
REMARK VINA RESULT:      -5.8      1.636      2.035
REMARK  3 active torsions:
REMARK  status: ('A' for Active; 'I' for Inactive)
REMARK    1  A    between atoms: C_6  and  N_7 
REMARK       I    between atoms: N_7  and  C_8 
REMARK    2  A    between atoms: C_8  and  C_10 
REMARK    3  A    between atoms: C_10  and  N_11 
ROOT
HETATM    1  N   UNL     1     -40.791 -50.363  11.330  1.00  0.00    -0.355 N 
HETATM    2  C   UNL     1     -41.398 -51.268  12.183  1.00  0.00     0.237 C 
HETATM    3  O   UNL     1     -42.075 -50.917  13.149  1.00  0.00    -0.272 OA
HETATM    4  H   UNL     1     -40.247 -50.716  10.544  1.00  0.00     0.162 HD
ENDROOT
BRANCH   2   5
HETATM    5  C   UNL     1     -41.070 -52.736  11.931  1.00  0.00     0.255 C 
BRANCH   5   6
HETATM    6  N   UNL     1     -41.223 -53.567  13.124  1.00  0.00    -0.248 N 
HETATM    7  N   UNL     1     -42.506 -53.964  13.422  1.00  0.00    -0.305 N 
HETATM    8  C   UNL     1     -42.674 -54.643  14.510  1.00  0.00     0.133 A 
ATOM      9  HN  UNL     1     -43.291 -53.734  12.813  1.00  0.00     0.186 HD
HETATM   10  C   UNL     1     -41.618 -55.001  15.464  1.00  0.00     0.078 A 
HETATM   11 CL   UNL     1     -42.095 -55.855  16.873  1.00  0.00    -0.081 Cl
HETATM   12  C   UNL     1     -40.375 -54.625  15.159  1.00  0.00     0.126 A 
HETATM   13 CL   UNL     1     -39.017 -54.952  16.175  1.00  0.00    -0.076 Cl
HETATM   14  C   UNL     1     -40.110 -53.886  13.891  1.00  0.00     0.285 A 
HETATM   15  O   UNL     1     -38.966 -53.593  13.545  1.00  0.00    -0.265 OA
ENDBRANCH   5   6
ENDBRANCH   2   5
BRANCH   1  16
HETATM   16  C   UNL     1     -40.977 -48.926  11.497  1.00  0.00     0.088 C 
HETATM   17  C   UNL     1     -41.731 -48.349  10.291  1.00  0.00     0.025 C 
HETATM   18  C   UNL     1     -41.965 -46.847  10.430  1.00  0.00     0.002 C 
HETATM   19  C   UNL     1     -40.661 -46.096  10.686  1.00  0.00     0.005 C 
HETATM   20  C   UNL     1     -39.874 -46.652  11.885  1.00  0.00    -0.013 C 
HETATM   21  C   UNL     1     -40.560 -46.272  13.206  1.00  0.00     0.010 C 
HETATM   22  C   UNL     1     -39.640 -48.179  11.712  1.00  0.00     0.008 C 
HETATM   23  C   UNL     1     -38.829 -48.763  12.873  1.00  0.00     0.012 C 
ENDBRANCH   1  16
TORSDOF 3
ENDMDL
MODEL 7
REMARK VINA RESULT:      -5.8      2.758      3.665
REMARK  3 active torsions:
REMARK  status: ('A' for Active; 'I' for Inactive)
REMARK    1  A    between atoms: C_6  and  N_7 
REMARK       I    between atoms: N_7  and  C_8 
REMARK    2  A    between atoms: C_8  and  C_10 
REMARK    3  A    between atoms: C_10  and  N_11 
ROOT
HETATM    1  N   UNL     1     -39.152 -51.032  13.368  1.00  0.00    -0.355 N 
HETATM    2  C   UNL     1     -40.463 -51.104  12.930  1.00  0.00     0.237 C 
HETATM    3  O   UNL     1     -41.327 -50.306  13.290  1.00  0.00    -0.272 OA
HETATM    4  H   UNL     1     -38.481 -51.719  13.028  1.00  0.00     0.162 HD
ENDROOT
BRANCH   2   5
HETATM    5  C   UNL     1     -40.806 -52.316  12.070  1.00  0.00     0.255 C 
BRANCH   5   6
HETATM    6  N   UNL     1     -41.955 -53.065  12.574  1.00  0.00    -0.248 N 
HETATM    7  N   UNL     1     -43.164 -52.793  11.976  1.00  0.00    -0.305 N 
HETATM    8  C   UNL     1     -44.205 -53.395  12.453  1.00  0.00     0.133 A 
ATOM      9  HN  UNL     1     -43.236 -52.145  11.192  1.00  0.00     0.186 HD
HETATM   10  C   UNL     1     -44.209 -54.319  13.591  1.00  0.00     0.078 A 
HETATM   11 CL   UNL     1     -45.728 -54.947  14.083  1.00  0.00    -0.081 Cl
HETATM   12  C   UNL     1     -43.031 -54.590  14.155  1.00  0.00     0.126 A 
HETATM   13 CL   UNL     1     -42.857 -55.645  15.511  1.00  0.00    -0.076 Cl
HETATM   14  C   UNL     1     -41.787 -53.969  13.617  1.00  0.00     0.285 A 
HETATM   15  O   UNL     1     -40.678 -54.257  14.065  1.00  0.00    -0.265 OA
ENDBRANCH   5   6
ENDBRANCH   2   5
BRANCH   1  16
HETATM   16  C   UNL     1     -38.707 -49.953  14.242  1.00  0.00     0.088 C 
HETATM   17  C   UNL     1     -37.896 -48.925  13.439  1.00  0.00     0.025 C 
HETATM   18  C   UNL     1     -37.423 -47.766  14.312  1.00  0.00     0.002 C 
HETATM   19  C   UNL     1     -36.649 -48.258  15.532  1.00  0.00     0.005 C 
HETATM   20  C   UNL     1     -37.428 -49.297  16.358  1.00  0.00    -0.013 C 
HETATM   21  C   UNL     1     -38.572 -48.624  17.132  1.00  0.00     0.010 C 
HETATM   22  C   UNL     1     -37.888 -50.471  15.448  1.00  0.00     0.008 C 
HETATM   23  C   UNL     1     -38.641 -51.542  16.243  1.00  0.00     0.012 C 
ENDBRANCH   1  16
TORSDOF 3
ENDMDL
MODEL 8
REMARK VINA RESULT:      -5.8      3.802      7.640
REMARK  3 active torsions:
REMARK  status: ('A' for Active; 'I' for Inactive)
REMARK    1  A    between atoms: C_6  and  N_7 
REMARK       I    between atoms: N_7  and  C_8 
REMARK    2  A    between atoms: C_8  and  C_10 
REMARK    3  A    between atoms: C_10  and  N_11 
ROOT
HETATM    1  N   UNL     1     -42.908 -52.082  12.278  1.00  0.00    -0.355 N 
HETATM    2  C   UNL     1     -41.864 -51.264  12.672  1.00  0.00     0.237 C 
HETATM    3  O   UNL     1     -41.640 -50.996  13.852  1.00  0.00    -0.272 OA
HETATM    4  H   UNL     1     -43.038 -52.272  11.285  1.00  0.00     0.162 HD
ENDROOT
BRANCH   2   5
HETATM    5  C   UNL     1     -41.080 -50.604  11.542  1.00  0.00     0.255 C 
BRANCH   5   6
HETATM    6  N   UNL     1     -40.571 -49.281  11.898  1.00  0.00    -0.248 N 
HETATM    7  N   UNL     1     -39.660 -49.242  12.928  1.00  0.00    -0.305 N 
HETATM    8  C   UNL     1     -39.248 -48.075  13.305  1.00  0.00     0.133 A 
ATOM      9  HN  UNL     1     -39.324 -50.094  13.376  1.00  0.00     0.186 HD
HETATM   10  C   UNL     1     -39.690 -46.793  12.746  1.00  0.00     0.078 A 
HETATM   11 CL   UNL     1     -39.048 -45.369  13.455  1.00  0.00    -0.081 Cl
HETATM   12  C   UNL     1     -40.561 -46.840  11.737  1.00  0.00     0.126 A 
HETATM   13 CL   UNL     1     -41.194 -45.428  10.972  1.00  0.00    -0.076 Cl
HETATM   14  C   UNL     1     -41.033 -48.158  11.222  1.00  0.00     0.285 A 
HETATM   15  O   UNL     1     -41.776 -48.238  10.244  1.00  0.00    -0.265 OA
ENDBRANCH   5   6
ENDBRANCH   2   5
BRANCH   1  16
HETATM   16  C   UNL     1     -43.771 -52.729  13.260  1.00  0.00     0.088 C 
HETATM   17  C   UNL     1     -43.310 -54.175  13.494  1.00  0.00     0.025 C 
HETATM   18  C   UNL     1     -44.175 -54.888  14.530  1.00  0.00     0.002 C 
HETATM   19  C   UNL     1     -45.656 -54.826  14.166  1.00  0.00     0.005 C 
HETATM   20  C   UNL     1     -46.153 -53.392  13.916  1.00  0.00    -0.013 C 
HETATM   21  C   UNL     1     -46.262 -52.619  15.239  1.00  0.00     0.010 C 
HETATM   22  C   UNL     1     -45.262 -52.693  12.850  1.00  0.00     0.008 C 
HETATM   23  C   UNL     1     -45.746 -51.271  12.550  1.00  0.00     0.012 C 
ENDBRANCH   1  16
TORSDOF 3
ENDMDL
MODEL 9
REMARK VINA RESULT:      -5.7      3.864      7.637
REMARK  3 active torsions:
REMARK  status: ('A' for Active; 'I' for Inactive)
REMARK    1  A    between atoms: C_6  and  N_7 
REMARK       I    between atoms: N_7  and  C_8 
REMARK    2  A    between atoms: C_8  and  C_10 
REMARK    3  A    between atoms: C_10  and  N_11 
ROOT
HETATM    1  N   UNL     1     -41.117 -52.402  13.164  1.00  0.00    -0.355 N 
HETATM    2  C   UNL     1     -41.350 -51.054  12.954  1.00  0.00     0.237 C 
HETATM    3  O   UNL     1     -42.128 -50.400  13.647  1.00  0.00    -0.272 OA
HETATM    4  H   UNL     1     -40.455 -52.888  12.560  1.00  0.00     0.162 HD
ENDROOT
BRANCH   2   5
HETATM    5  C   UNL     1     -40.680 -50.452  11.722  1.00  0.00     0.255 C 
BRANCH   5   6
HETATM    6  N   UNL     1     -41.161 -49.108  11.411  1.00  0.00    -0.248 N 
HETATM    7  N   UNL     1     -42.497 -49.002  11.101  1.00  0.00    -0.305 N 
HETATM    8  C   UNL     1     -42.930 -47.833  10.757  1.00  0.00     0.133 A 
ATOM      9  HN  UNL     1     -43.119 -49.809  11.140  1.00  0.00     0.186 HD
HETATM   10  C   UNL     1     -42.113 -46.619  10.644  1.00  0.00     0.078 A 
HETATM   11 CL   UNL     1     -42.902 -45.194  10.106  1.00  0.00    -0.081 Cl
HETATM   12  C   UNL     1     -40.823 -46.727  10.962  1.00  0.00     0.126 A 
HETATM   13 CL   UNL     1     -39.717 -45.404  10.873  1.00  0.00    -0.076 Cl
HETATM   14  C   UNL     1     -40.275 -48.038  11.418  1.00  0.00     0.285 A 
HETATM   15  O   UNL     1     -39.108 -48.152  11.791  1.00  0.00    -0.265 OA
ENDBRANCH   5   6
ENDBRANCH   2   5
BRANCH   1  16
HETATM   16  C   UNL     1     -41.742 -53.111  14.274  1.00  0.00     0.088 C 
HETATM   17  C   UNL     1     -40.666 -53.666  15.218  1.00  0.00     0.025 C 
HETATM   18  C   UNL     1     -41.276 -54.403  16.407  1.00  0.00     0.002 C 
HETATM   19  C   UNL     1     -42.242 -55.497  15.957  1.00  0.00     0.005 C 
HETATM   20  C   UNL     1     -43.331 -54.979  15.002  1.00  0.00    -0.013 C 
HETATM   21  C   UNL     1     -44.362 -54.134  15.766  1.00  0.00     0.010 C 
HETATM   22  C   UNL     1     -42.683 -54.242  13.796  1.00  0.00     0.008 C 
HETATM   23  C   UNL     1     -43.737 -53.740  12.805  1.00  0.00     0.012 C 
ENDBRANCH   1  16
TORSDOF 3
ENDMDL
