MODEL 1
REMARK VINA RESULT:      -6.5      0.000      0.000
REMARK  5 active torsions:
REMARK  status: ('A' for Active; 'I' for Inactive)
REMARK    1  A    between atoms: N_2  and  C_4 
REMARK    2  A    between atoms: C_4  and  C_5 
REMARK    3  A    between atoms: C_5  and  N_6 
REMARK       I    between atoms: N_6  and  C_7 
REMARK       I    between atoms: C_7  and  N_9 
REMARK    4  A    between atoms: N_9  and  C_10 
REMARK    5  A    between atoms: C_16  and  N_17 
ROOT
HETATM    1  N   UNL     1     -41.587 -49.298  10.903  1.00  0.00    -0.340 N 
HETATM    2  C   UNL     1     -41.658 -50.085  12.031  1.00  0.00     0.320 C 
HETATM    3  O   UNL     1     -41.469 -49.612  13.148  1.00  0.00    -0.247 OA
HETATM    4  N   UNL     1     -41.940 -51.397  11.753  1.00  0.00    -0.306 N 
HETATM    5  H   UNL     1     -42.160 -49.548  10.107  1.00  0.00     0.164 HD
HETATM    6  H   UNL     1     -42.214 -51.651  10.813  1.00  0.00     0.171 HD
ENDROOT
BRANCH   1   7
HETATM    7  C   UNL     1     -41.363 -47.873  11.090  1.00  0.00     0.166 C 
BRANCH   7   8
HETATM    8  C   UNL     1     -42.615 -46.968  10.803  1.00  0.00     0.178 C 
HETATM    9  C   UNL     1     -42.371 -46.367   9.385  1.00  0.00     0.069 C 
HETATM   10  C   UNL     1     -43.627 -45.883   8.681  1.00  0.00     0.170 C 
HETATM   11  O   UNL     1     -44.593 -46.928   8.613  1.00  0.00    -0.391 OA
HETATM   12  C   UNL     1     -45.018 -47.340   9.906  1.00  0.00     0.170 C 
HETATM   13  C   UNL     1     -43.849 -47.915  10.705  1.00  0.00     0.069 C 
BRANCH   8  14
HETATM   14  N   UNL     1     -42.722 -45.994  11.947  1.00  0.00     0.091 N 
HETATM   15  C   UNL     1     -43.060 -46.594  13.244  1.00  0.00     0.310 C 
HETATM   16  C   UNL     1     -41.649 -45.028  12.135  1.00  0.00     0.310 C 
ENDBRANCH   8  14
ENDBRANCH   7   8
ENDBRANCH   1   7
BRANCH   4  17
HETATM   17  C   UNL     1     -41.998 -52.461  12.695  1.00  0.00     0.075 A 
HETATM   18  C   UNL     1     -40.888 -53.260  12.980  1.00  0.00     0.034 A 
HETATM   19  C   UNL     1     -40.996 -54.310  13.883  1.00  0.00     0.019 A 
HETATM   20  C   UNL     1     -42.229 -54.532  14.463  1.00  0.00     0.089 A 
HETATM   21  N   UNL     1     -43.327 -53.788  14.210  1.00  0.00    -0.355 N 
HETATM   22  C   UNL     1     -43.224 -52.749  13.343  1.00  0.00     0.109 A 
ATOM     23  HN  UNL     1     -44.215 -54.001  14.662  1.00  0.00     0.166 HD
BRANCH  22  24
HETATM   24  N   UNL     1     -44.352 -51.915  13.134  1.00  0.00    -0.267 NA
HETATM   25  C   UNL     1     -45.600 -52.639  12.810  1.00  0.00     0.097 C 
HETATM   26  C   UNL     1     -46.703 -51.888  13.551  1.00  0.00     0.016 C 
HETATM   27  C   UNL     1     -45.997 -51.353  14.779  1.00  0.00     0.016 C 
HETATM   28  C   UNL     1     -44.600 -51.017  14.277  1.00  0.00     0.097 C 
ENDBRANCH  22  24
ENDBRANCH   4  17
TORSDOF 5
ENDMDL
MODEL 2
REMARK VINA RESULT:      -6.5      1.915      6.845
REMARK  5 active torsions:
REMARK  status: ('A' for Active; 'I' for Inactive)
REMARK    1  A    between atoms: N_2  and  C_4 
REMARK    2  A    between atoms: C_4  and  C_5 
REMARK    3  A    between atoms: C_5  and  N_6 
REMARK       I    between atoms: N_6  and  C_7 
REMARK       I    between atoms: C_7  and  N_9 
REMARK    4  A    between atoms: N_9  and  C_10 
REMARK    5  A    between atoms: C_16  and  N_17 
ROOT
HETATM    1  N   UNL     1     -42.190 -51.532  11.890  1.00  0.00    -0.340 N 
HETATM    2  C   UNL     1     -41.638 -50.286  12.094  1.00  0.00     0.320 C 
HETATM    3  O   UNL     1     -41.208 -49.955  13.194  1.00  0.00    -0.247 OA
HETATM    4  N   UNL     1     -41.645 -49.506  10.967  1.00  0.00    -0.306 N 
HETATM    5  H   UNL     1     -42.110 -51.947  10.971  1.00  0.00     0.164 HD
HETATM    6  H   UNL     1     -41.895 -49.926  10.081  1.00  0.00     0.171 HD
ENDROOT
BRANCH   1   7
HETATM    7  C   UNL     1     -42.169 -52.467  13.004  1.00  0.00     0.166 C 
BRANCH   7   8
HETATM    8  C   UNL     1     -43.574 -52.761  13.642  1.00  0.00     0.178 C 
HETATM    9  C   UNL     1     -44.165 -53.939  12.810  1.00  0.00     0.069 C 
HETATM   10  C   UNL     1     -45.252 -54.729  13.517  1.00  0.00     0.170 C 
HETATM   11  O   UNL     1     -44.782 -55.203  14.776  1.00  0.00    -0.391 OA
HETATM   12  C   UNL     1     -44.456 -54.134  15.656  1.00  0.00     0.170 C 
HETATM   13  C   UNL     1     -43.317 -53.290  15.086  1.00  0.00     0.069 C 
BRANCH   8  14
HETATM   14  N   UNL     1     -44.340 -51.464  13.629  1.00  0.00     0.091 N 
HETATM   15  C   UNL     1     -45.701 -51.551  13.084  1.00  0.00     0.310 C 
HETATM   16  C   UNL     1     -44.367 -50.666  14.848  1.00  0.00     0.310 C 
ENDBRANCH   8  14
ENDBRANCH   7   8
ENDBRANCH   1   7
BRANCH   4  17
HETATM   17  C   UNL     1     -41.219 -48.152  10.881  1.00  0.00     0.075 A 
HETATM   18  C   UNL     1     -40.037 -47.708  11.478  1.00  0.00     0.034 A 
HETATM   19  C   UNL     1     -39.674 -46.369  11.399  1.00  0.00     0.019 A 
HETATM   20  C   UNL     1     -40.524 -45.513  10.729  1.00  0.00     0.089 A 
HETATM   21  N   UNL     1     -41.678 -45.900  10.144  1.00  0.00    -0.355 N 
HETATM   22  C   UNL     1     -42.030 -47.209  10.202  1.00  0.00     0.109 A 
ATOM     23  HN  UNL     1     -42.273 -45.223   9.668  1.00  0.00     0.166 HD
BRANCH  22  24
HETATM   24  N   UNL     1     -43.199 -47.637   9.522  1.00  0.00    -0.267 NA
HETATM   25  C   UNL     1     -44.381 -47.822  10.390  1.00  0.00     0.097 C 
HETATM   26  C   UNL     1     -45.563 -47.305   9.574  1.00  0.00     0.016 C 
HETATM   27  C   UNL     1     -44.950 -46.213   8.724  1.00  0.00     0.016 C 
HETATM   28  C   UNL     1     -43.556 -46.738   8.408  1.00  0.00     0.097 C 
ENDBRANCH  22  24
ENDBRANCH   4  17
TORSDOF 5
ENDMDL
MODEL 3
REMARK VINA RESULT:      -6.2      1.360      2.264
REMARK  5 active torsions:
REMARK  status: ('A' for Active; 'I' for Inactive)
REMARK    1  A    between atoms: N_2  and  C_4 
REMARK    2  A    between atoms: C_4  and  C_5 
REMARK    3  A    between atoms: C_5  and  N_6 
REMARK       I    between atoms: N_6  and  C_7 
REMARK       I    between atoms: C_7  and  N_9 
REMARK    4  A    between atoms: N_9  and  C_10 
REMARK    5  A    between atoms: C_16  and  N_17 
ROOT
HETATM    1  N   UNL     1     -41.140 -49.511  10.951  1.00  0.00    -0.340 N 
HETATM    2  C   UNL     1     -41.228 -50.321  12.063  1.00  0.00     0.320 C 
HETATM    3  O   UNL     1     -40.744 -49.977  13.138  1.00  0.00    -0.247 OA
HETATM    4  N   UNL     1     -41.879 -51.501  11.818  1.00  0.00    -0.306 N 
HETATM    5  H   UNL     1     -41.879 -49.562  10.263  1.00  0.00     0.164 HD
HETATM    6  H   UNL     1     -42.358 -51.622  10.934  1.00  0.00     0.171 HD
ENDROOT
BRANCH   1   7
HETATM    7  C   UNL     1     -40.529 -48.202  11.119  1.00  0.00     0.166 C 
BRANCH   7   8
HETATM    8  C   UNL     1     -41.539 -46.999  11.107  1.00  0.00     0.178 C 
HETATM    9  C   UNL     1     -41.893 -46.743  12.604  1.00  0.00     0.069 C 
HETATM   10  C   UNL     1     -42.430 -45.353  12.897  1.00  0.00     0.170 C 
HETATM   11  O   UNL     1     -41.522 -44.360  12.429  1.00  0.00    -0.391 OA
HETATM   12  C   UNL     1     -41.360 -44.415  11.017  1.00  0.00     0.170 C 
HETATM   13  C   UNL     1     -40.758 -45.753  10.591  1.00  0.00     0.069 C 
BRANCH   8  14
HETATM   14  N   UNL     1     -42.673 -47.389  10.195  1.00  0.00     0.091 N 
HETATM   15  C   UNL     1     -43.933 -47.717  10.874  1.00  0.00     0.310 C 
HETATM   16  C   UNL     1     -42.960 -46.540   9.047  1.00  0.00     0.310 C 
ENDBRANCH   8  14
ENDBRANCH   7   8
ENDBRANCH   1   7
BRANCH   4  17
HETATM   17  C   UNL     1     -42.056 -52.569  12.739  1.00  0.00     0.075 A 
HETATM   18  C   UNL     1     -41.027 -53.463  13.044  1.00  0.00     0.034 A 
HETATM   19  C   UNL     1     -41.251 -54.513  13.926  1.00  0.00     0.019 A 
HETATM   20  C   UNL     1     -42.516 -54.639  14.464  1.00  0.00     0.089 A 
HETATM   21  N   UNL     1     -43.539 -53.801  14.191  1.00  0.00    -0.355 N 
HETATM   22  C   UNL     1     -43.322 -52.763  13.345  1.00  0.00     0.109 A 
ATOM     23  HN  UNL     1     -44.456 -53.945  14.612  1.00  0.00     0.166 HD
BRANCH  22  24
HETATM   24  N   UNL     1     -44.369 -51.833  13.116  1.00  0.00    -0.267 NA
HETATM   25  C   UNL     1     -45.641 -52.439  12.667  1.00  0.00     0.097 C 
HETATM   26  C   UNL     1     -46.735 -51.650  13.380  1.00  0.00     0.016 C 
HETATM   27  C   UNL     1     -46.079 -51.242  14.683  1.00  0.00     0.016 C 
HETATM   28  C   UNL     1     -44.629 -50.986  14.294  1.00  0.00     0.097 C 
ENDBRANCH  22  24
ENDBRANCH   4  17
TORSDOF 5
ENDMDL
MODEL 4
REMARK VINA RESULT:      -6.2      2.613      7.305
REMARK  5 active torsions:
REMARK  status: ('A' for Active; 'I' for Inactive)
REMARK    1  A    between atoms: N_2  and  C_4 
REMARK    2  A    between atoms: C_4  and  C_5 
REMARK    3  A    between atoms: C_5  and  N_6 
REMARK       I    between atoms: N_6  and  C_7 
REMARK       I    between atoms: C_7  and  N_9 
REMARK    4  A    between atoms: N_9  and  C_10 
REMARK    5  A    between atoms: C_16  and  N_17 
ROOT
HETATM    1  N   UNL     1     -43.906 -50.724  12.643  1.00  0.00    -0.340 N 
HETATM    2  C   UNL     1     -43.182 -49.552  12.691  1.00  0.00     0.320 C 
HETATM    3  O   UNL     1     -43.216 -48.826  13.680  1.00  0.00    -0.247 OA
HETATM    4  N   UNL     1     -42.470 -49.315  11.544  1.00  0.00    -0.306 N 
HETATM    5  H   UNL     1     -43.542 -51.489  12.090  1.00  0.00     0.164 HD
HETATM    6  H   UNL     1     -42.404 -50.045  10.847  1.00  0.00     0.171 HD
ENDROOT
BRANCH   1   7
HETATM    7  C   UNL     1     -44.642 -51.109  13.837  1.00  0.00     0.166 C 
BRANCH   7   8
HETATM    8  C   UNL     1     -44.394 -52.584  14.315  1.00  0.00     0.178 C 
HETATM    9  C   UNL     1     -45.044 -52.674  15.730  1.00  0.00     0.069 C 
HETATM   10  C   UNL     1     -45.384 -54.083  16.179  1.00  0.00     0.170 C 
HETATM   11  O   UNL     1     -46.213 -54.727  15.216  1.00  0.00    -0.391 OA
HETATM   12  C   UNL     1     -45.552 -54.877  13.966  1.00  0.00     0.170 C 
HETATM   13  C   UNL     1     -45.208 -53.514  13.365  1.00  0.00     0.069 C 
BRANCH   8  14
HETATM   14  N   UNL     1     -42.910 -52.828  14.230  1.00  0.00     0.091 N 
HETATM   15  C   UNL     1     -42.168 -52.592  15.475  1.00  0.00     0.310 C 
HETATM   16  C   UNL     1     -42.448 -54.072  13.631  1.00  0.00     0.310 C 
ENDBRANCH   8  14
ENDBRANCH   7   8
ENDBRANCH   1   7
BRANCH   4  17
HETATM   17  C   UNL     1     -41.696 -48.156  11.263  1.00  0.00     0.075 A 
HETATM   18  C   UNL     1     -42.260 -47.005  10.708  1.00  0.00     0.034 A 
HETATM   19  C   UNL     1     -41.462 -45.905  10.418  1.00  0.00     0.019 A 
HETATM   20  C   UNL     1     -40.111 -46.006  10.684  1.00  0.00     0.089 A 
HETATM   21  N   UNL     1     -39.526 -47.101  11.213  1.00  0.00    -0.355 N 
HETATM   22  C   UNL     1     -40.302 -48.172  11.516  1.00  0.00     0.109 A 
ATOM     23  HN  UNL     1     -38.521 -47.124  11.382  1.00  0.00     0.166 HD
BRANCH  22  24
HETATM   24  N   UNL     1     -39.707 -49.295  12.145  1.00  0.00    -0.267 NA
HETATM   25  C   UNL     1     -38.515 -49.828  11.451  1.00  0.00     0.097 C 
HETATM   26  C   UNL     1     -37.545 -50.219  12.563  1.00  0.00     0.016 C 
HETATM   27  C   UNL     1     -37.859 -49.229  13.665  1.00  0.00     0.016 C 
HETATM   28  C   UNL     1     -39.365 -49.028  13.554  1.00  0.00     0.097 C 
ENDBRANCH  22  24
ENDBRANCH   4  17
TORSDOF 5
ENDMDL
MODEL 5
REMARK VINA RESULT:      -6.2      1.273      1.689
REMARK  5 active torsions:
REMARK  status: ('A' for Active; 'I' for Inactive)
REMARK    1  A    between atoms: N_2  and  C_4 
REMARK    2  A    between atoms: C_4  and  C_5 
REMARK    3  A    between atoms: C_5  and  N_6 
REMARK       I    between atoms: N_6  and  C_7 
REMARK       I    between atoms: C_7  and  N_9 
REMARK    4  A    between atoms: N_9  and  C_10 
REMARK    5  A    between atoms: C_16  and  N_17 
ROOT
HETATM    1  N   UNL     1     -40.849 -50.094  11.308  1.00  0.00    -0.340 N 
HETATM    2  C   UNL     1     -41.091 -50.848  12.435  1.00  0.00     0.320 C 
HETATM    3  O   UNL     1     -40.635 -50.522  13.527  1.00  0.00    -0.247 OA
HETATM    4  N   UNL     1     -41.857 -51.957  12.185  1.00  0.00    -0.306 N 
HETATM    5  H   UNL     1     -41.548 -50.087  10.576  1.00  0.00     0.164 HD
HETATM    6  H   UNL     1     -42.295 -52.056  11.277  1.00  0.00     0.171 HD
ENDROOT
BRANCH   1   7
HETATM    7  C   UNL     1     -40.105 -48.856  11.475  1.00  0.00     0.166 C 
BRANCH   7   8
HETATM    8  C   UNL     1     -40.992 -47.562  11.563  1.00  0.00     0.178 C 
HETATM    9  C   UNL     1     -40.124 -46.424  10.947  1.00  0.00     0.069 C 
HETATM   10  C   UNL     1     -40.913 -45.223  10.457  1.00  0.00     0.170 C 
HETATM   11  O   UNL     1     -41.917 -45.630   9.532  1.00  0.00    -0.391 OA
HETATM   12  C   UNL     1     -42.874 -46.492  10.136  1.00  0.00     0.170 C 
HETATM   13  C   UNL     1     -42.213 -47.783  10.619  1.00  0.00     0.069 C 
BRANCH   8  14
HETATM   14  N   UNL     1     -41.397 -47.407  13.005  1.00  0.00     0.091 N 
HETATM   15  C   UNL     1     -40.887 -46.201  13.668  1.00  0.00     0.310 C 
HETATM   16  C   UNL     1     -42.801 -47.581  13.351  1.00  0.00     0.310 C 
ENDBRANCH   8  14
ENDBRANCH   7   8
ENDBRANCH   1   7
BRANCH   4  17
HETATM   17  C   UNL     1     -42.206 -52.965  13.124  1.00  0.00     0.075 A 
HETATM   18  C   UNL     1     -41.283 -53.913  13.571  1.00  0.00     0.034 A 
HETATM   19  C   UNL     1     -41.674 -54.902  14.466  1.00  0.00     0.019 A 
HETATM   20  C   UNL     1     -42.993 -54.913  14.872  1.00  0.00     0.089 A 
HETATM   21  N   UNL     1     -43.918 -54.020  14.459  1.00  0.00    -0.355 N 
HETATM   22  C   UNL     1     -43.538 -53.041  13.600  1.00  0.00     0.109 A 
ATOM     23  HN  UNL     1     -44.881 -54.080  14.786  1.00  0.00     0.166 HD
BRANCH  22  24
HETATM   24  N   UNL     1     -44.485 -52.053  13.224  1.00  0.00    -0.267 NA
HETATM   25  C   UNL     1     -45.676 -52.578  12.524  1.00  0.00     0.097 C 
HETATM   26  C   UNL     1     -46.849 -51.760  13.060  1.00  0.00     0.016 C 
HETATM   27  C   UNL     1     -46.428 -51.432  14.477  1.00  0.00     0.016 C 
HETATM   28  C   UNL     1     -44.921 -51.235  14.372  1.00  0.00     0.097 C 
ENDBRANCH  22  24
ENDBRANCH   4  17
TORSDOF 5
ENDMDL
MODEL 6
REMARK VINA RESULT:      -6.1      2.038      2.679
REMARK  5 active torsions:
REMARK  status: ('A' for Active; 'I' for Inactive)
REMARK    1  A    between atoms: N_2  and  C_4 
REMARK    2  A    between atoms: C_4  and  C_5 
REMARK    3  A    between atoms: C_5  and  N_6 
REMARK       I    between atoms: N_6  and  C_7 
REMARK       I    between atoms: C_7  and  N_9 
REMARK    4  A    between atoms: N_9  and  C_10 
REMARK    5  A    between atoms: C_16  and  N_17 
ROOT
HETATM    1  N   UNL     1     -42.226 -47.785  11.884  1.00  0.00    -0.340 N 
HETATM    2  C   UNL     1     -42.140 -48.932  12.642  1.00  0.00     0.320 C 
HETATM    3  O   UNL     1     -41.945 -48.879  13.853  1.00  0.00    -0.247 OA
HETATM    4  N   UNL     1     -42.283 -50.077  11.902  1.00  0.00    -0.306 N 
HETATM    5  H   UNL     1     -42.810 -47.799  11.058  1.00  0.00     0.164 HD
HETATM    6  H   UNL     1     -42.578 -50.003  10.937  1.00  0.00     0.171 HD
ENDROOT
BRANCH   1   7
HETATM    7  C   UNL     1     -42.159 -46.511  12.582  1.00  0.00     0.166 C 
BRANCH   7   8
HETATM    8  C   UNL     1     -40.882 -45.653  12.263  1.00  0.00     0.178 C 
HETATM    9  C   UNL     1     -40.382 -46.159  10.875  1.00  0.00     0.069 C 
HETATM   10  C   UNL     1     -39.497 -45.177  10.128  1.00  0.00     0.170 C 
HETATM   11  O   UNL     1     -40.155 -43.922   9.986  1.00  0.00    -0.391 OA
HETATM   12  C   UNL     1     -40.414 -43.315  11.246  1.00  0.00     0.170 C 
HETATM   13  C   UNL     1     -41.358 -44.179  12.082  1.00  0.00     0.069 C 
BRANCH   8  14
HETATM   14  N   UNL     1     -39.942 -45.818  13.428  1.00  0.00     0.091 N 
HETATM   15  C   UNL     1     -40.563 -45.684  14.752  1.00  0.00     0.310 C 
HETATM   16  C   UNL     1     -39.048 -46.967  13.437  1.00  0.00     0.310 C 
ENDBRANCH   8  14
ENDBRANCH   7   8
ENDBRANCH   1   7
BRANCH   4  17
HETATM   17  C   UNL     1     -42.164 -51.409  12.385  1.00  0.00     0.075 A 
HETATM   18  C   UNL     1     -40.988 -52.148  12.235  1.00  0.00     0.034 A 
HETATM   19  C   UNL     1     -40.924 -53.459  12.692  1.00  0.00     0.019 A 
HETATM   20  C   UNL     1     -42.056 -53.990  13.276  1.00  0.00     0.089 A 
HETATM   21  N   UNL     1     -43.213 -53.311  13.435  1.00  0.00    -0.355 N 
HETATM   22  C   UNL     1     -43.277 -52.025  13.007  1.00  0.00     0.109 A 
ATOM     23  HN  UNL     1     -44.022 -53.756  13.867  1.00  0.00     0.166 HD
BRANCH  22  24
HETATM   24  N   UNL     1     -44.462 -51.282  13.242  1.00  0.00    -0.267 NA
HETATM   25  C   UNL     1     -45.707 -51.964  12.830  1.00  0.00     0.097 C 
HETATM   26  C   UNL     1     -46.728 -51.625  13.913  1.00  0.00     0.016 C 
HETATM   27  C   UNL     1     -45.880 -51.483  15.159  1.00  0.00     0.016 C 
HETATM   28  C   UNL     1     -44.586 -50.862  14.650  1.00  0.00     0.097 C 
ENDBRANCH  22  24
ENDBRANCH   4  17
TORSDOF 5
ENDMDL
MODEL 7
REMARK VINA RESULT:      -6.0      2.255      7.330
REMARK  5 active torsions:
REMARK  status: ('A' for Active; 'I' for Inactive)
REMARK    1  A    between atoms: N_2  and  C_4 
REMARK    2  A    between atoms: C_4  and  C_5 
REMARK    3  A    between atoms: C_5  and  N_6 
REMARK       I    between atoms: N_6  and  C_7 
REMARK       I    between atoms: C_7  and  N_9 
REMARK    4  A    between atoms: N_9  and  C_10 
REMARK    5  A    between atoms: C_16  and  N_17 
ROOT
HETATM    1  N   UNL     1     -43.839 -50.903  12.654  1.00  0.00    -0.340 N 
HETATM    2  C   UNL     1     -43.143 -49.714  12.705  1.00  0.00     0.320 C 
HETATM    3  O   UNL     1     -43.114 -49.040  13.730  1.00  0.00    -0.247 OA
HETATM    4  N   UNL     1     -42.532 -49.399  11.519  1.00  0.00    -0.306 N 
HETATM    5  H   UNL     1     -43.503 -51.628  12.034  1.00  0.00     0.164 HD
HETATM    6  H   UNL     1     -42.506 -50.091  10.782  1.00  0.00     0.171 HD
ENDROOT
BRANCH   1   7
HETATM    7  C   UNL     1     -44.467 -51.368  13.881  1.00  0.00     0.166 C 
BRANCH   7   8
HETATM    8  C   UNL     1     -43.917 -52.737  14.422  1.00  0.00     0.178 C 
HETATM    9  C   UNL     1     -42.972 -53.272  13.304  1.00  0.00     0.069 C 
HETATM   10  C   UNL     1     -41.949 -54.290  13.776  1.00  0.00     0.170 C 
HETATM   11  O   UNL     1     -41.184 -53.763  14.856  1.00  0.00    -0.391 OA
HETATM   12  C   UNL     1     -41.994 -53.484  15.991  1.00  0.00     0.170 C 
HETATM   13  C   UNL     1     -43.035 -52.413  15.666  1.00  0.00     0.069 C 
BRANCH   8  14
HETATM   14  N   UNL     1     -45.115 -53.583  14.767  1.00  0.00     0.091 N 
HETATM   15  C   UNL     1     -46.325 -52.832  15.124  1.00  0.00     0.310 C 
HETATM   16  C   UNL     1     -45.477 -54.667  13.863  1.00  0.00     0.310 C 
ENDBRANCH   8  14
ENDBRANCH   7   8
ENDBRANCH   1   7
BRANCH   4  17
HETATM   17  C   UNL     1     -41.813 -48.206  11.238  1.00  0.00     0.075 A 
HETATM   18  C   UNL     1     -42.423 -47.091  10.658  1.00  0.00     0.034 A 
HETATM   19  C   UNL     1     -41.677 -45.956  10.369  1.00  0.00     0.019 A 
HETATM   20  C   UNL     1     -40.328 -45.984  10.662  1.00  0.00     0.089 A 
HETATM   21  N   UNL     1     -39.699 -47.042  11.216  1.00  0.00    -0.355 N 
HETATM   22  C   UNL     1     -40.425 -48.148  11.518  1.00  0.00     0.109 A 
ATOM     23  HN  UNL     1     -38.697 -47.012  11.405  1.00  0.00     0.166 HD
BRANCH  22  24
HETATM   24  N   UNL     1     -39.786 -49.232  12.172  1.00  0.00    -0.267 NA
HETATM   25  C   UNL     1     -38.632 -49.797  11.442  1.00  0.00     0.097 C 
HETATM   26  C   UNL     1     -37.597 -50.121  12.515  1.00  0.00     0.016 C 
HETATM   27  C   UNL     1     -37.855 -49.073  13.578  1.00  0.00     0.016 C 
HETATM   28  C   UNL     1     -39.366 -48.886  13.543  1.00  0.00     0.097 C 
ENDBRANCH  22  24
ENDBRANCH   4  17
TORSDOF 5
ENDMDL
MODEL 8
REMARK VINA RESULT:      -6.0      1.527      3.176
REMARK  5 active torsions:
REMARK  status: ('A' for Active; 'I' for Inactive)
REMARK    1  A    between atoms: N_2  and  C_4 
REMARK    2  A    between atoms: C_4  and  C_5 
REMARK    3  A    between atoms: C_5  and  N_6 
REMARK       I    between atoms: N_6  and  C_7 
REMARK       I    between atoms: C_7  and  N_9 
REMARK    4  A    between atoms: N_9  and  C_10 
REMARK    5  A    between atoms: C_16  and  N_17 
ROOT
HETATM    1  N   UNL     1     -42.197 -49.720  11.600  1.00  0.00    -0.340 N 
HETATM    2  C   UNL     1     -42.780 -50.566  12.518  1.00  0.00     0.320 C 
HETATM    3  O   UNL     1     -43.217 -50.143  13.584  1.00  0.00    -0.247 OA
HETATM    4  N   UNL     1     -42.795 -51.874  12.108  1.00  0.00    -0.306 N 
HETATM    5  H   UNL     1     -42.268 -49.955  10.619  1.00  0.00     0.164 HD
HETATM    6  H   UNL     1     -42.535 -52.092  11.155  1.00  0.00     0.171 HD
ENDROOT
BRANCH   1   7
HETATM    7  C   UNL     1     -42.193 -48.298  11.905  1.00  0.00     0.166 C 
BRANCH   7   8
HETATM    8  C   UNL     1     -42.846 -47.388  10.803  1.00  0.00     0.178 C 
HETATM    9  C   UNL     1     -42.328 -47.951   9.444  1.00  0.00     0.069 C 
HETATM   10  C   UNL     1     -43.185 -47.589   8.244  1.00  0.00     0.170 C 
HETATM   11  O   UNL     1     -44.536 -47.987   8.459  1.00  0.00    -0.391 OA
HETATM   12  C   UNL     1     -45.120 -47.304   9.561  1.00  0.00     0.170 C 
HETATM   13  C   UNL     1     -44.384 -47.637  10.859  1.00  0.00     0.069 C 
BRANCH   8  14
HETATM   14  N   UNL     1     -42.478 -45.966  11.136  1.00  0.00     0.091 N 
HETATM   15  C   UNL     1     -42.442 -45.652  12.570  1.00  0.00     0.310 C 
HETATM   16  C   UNL     1     -41.306 -45.387  10.494  1.00  0.00     0.310 C 
ENDBRANCH   8  14
ENDBRANCH   7   8
ENDBRANCH   1   7
BRANCH   4  17
HETATM   17  C   UNL     1     -43.255 -52.986  12.866  1.00  0.00     0.075 A 
HETATM   18  C   UNL     1     -44.548 -53.495  12.724  1.00  0.00     0.034 A 
HETATM   19  C   UNL     1     -44.968 -54.562  13.508  1.00  0.00     0.019 A 
HETATM   20  C   UNL     1     -44.073 -55.076  14.424  1.00  0.00     0.089 A 
HETATM   21  N   UNL     1     -42.818 -54.610  14.597  1.00  0.00    -0.355 N 
HETATM   22  C   UNL     1     -42.395 -53.579  13.822  1.00  0.00     0.109 A 
ATOM     23  HN  UNL     1     -42.201 -55.023  15.295  1.00  0.00     0.166 HD
BRANCH  22  24
HETATM   24  N   UNL     1     -41.052 -53.136  13.943  1.00  0.00    -0.267 NA
HETATM   25  C   UNL     1     -40.651 -52.757  15.314  1.00  0.00     0.097 C 
HETATM   26  C   UNL     1     -39.220 -53.263  15.468  1.00  0.00     0.016 C 
HETATM   27  C   UNL     1     -39.186 -54.492  14.583  1.00  0.00     0.016 C 
HETATM   28  C   UNL     1     -40.091 -54.123  13.415  1.00  0.00     0.097 C 
ENDBRANCH  22  24
ENDBRANCH   4  17
TORSDOF 5
ENDMDL
MODEL 9
REMARK VINA RESULT:      -6.0      2.751      4.942
REMARK  5 active torsions:
REMARK  status: ('A' for Active; 'I' for Inactive)
REMARK    1  A    between atoms: N_2  and  C_4 
REMARK    2  A    between atoms: C_4  and  C_5 
REMARK    3  A    between atoms: C_5  and  N_6 
REMARK       I    between atoms: N_6  and  C_7 
REMARK       I    between atoms: C_7  and  N_9 
REMARK    4  A    between atoms: N_9  and  C_10 
REMARK    5  A    between atoms: C_16  and  N_17 
ROOT
HETATM    1  N   UNL     1     -41.902 -50.496  11.770  1.00  0.00    -0.340 N 
HETATM    2  C   UNL     1     -42.862 -50.518  12.759  1.00  0.00     0.320 C 
HETATM    3  O   UNL     1     -42.961 -49.599  13.566  1.00  0.00    -0.247 OA
HETATM    4  N   UNL     1     -43.638 -51.647  12.729  1.00  0.00    -0.306 N 
HETATM    5  H   UNL     1     -42.105 -50.964  10.896  1.00  0.00     0.164 HD
HETATM    6  H   UNL     1     -43.561 -52.274  11.938  1.00  0.00     0.171 HD
ENDROOT
BRANCH   1   7
HETATM    7  C   UNL     1     -41.069 -49.308  11.667  1.00  0.00     0.166 C 
BRANCH   7   8
HETATM    8  C   UNL     1     -39.663 -49.430  12.358  1.00  0.00     0.178 C 
HETATM    9  C   UNL     1     -39.684 -50.803  13.096  1.00  0.00     0.069 C 
HETATM   10  C   UNL     1     -38.312 -51.376  13.402  1.00  0.00     0.170 C 
HETATM   11  O   UNL     1     -37.534 -51.468  12.212  1.00  0.00    -0.391 OA
HETATM   12  C   UNL     1     -37.292 -50.190  11.637  1.00  0.00     0.170 C 
HETATM   13  C   UNL     1     -38.604 -49.526  11.219  1.00  0.00     0.069 C 
BRANCH   8  14
HETATM   14  N   UNL     1     -39.486 -48.200  13.210  1.00  0.00     0.091 N 
HETATM   15  C   UNL     1     -40.008 -46.958  12.625  1.00  0.00     0.310 C 
HETATM   16  C   UNL     1     -39.881 -48.268  14.610  1.00  0.00     0.310 C 
ENDBRANCH   8  14
ENDBRANCH   7   8
ENDBRANCH   1   7
BRANCH   4  17
HETATM   17  C   UNL     1     -44.652 -51.993  13.663  1.00  0.00     0.075 A 
HETATM   18  C   UNL     1     -45.895 -51.357  13.675  1.00  0.00     0.034 A 
HETATM   19  C   UNL     1     -46.848 -51.702  14.626  1.00  0.00     0.019 A 
HETATM   20  C   UNL     1     -46.510 -52.673  15.548  1.00  0.00     0.089 A 
HETATM   21  N   UNL     1     -45.319 -53.307  15.574  1.00  0.00    -0.355 N 
HETATM   22  C   UNL     1     -44.391 -52.987  14.637  1.00  0.00     0.109 A 
ATOM     23  HN  UNL     1     -45.120 -54.011  16.283  1.00  0.00     0.166 HD
BRANCH  22  24
HETATM   24  N   UNL     1     -43.167 -53.705  14.610  1.00  0.00    -0.267 NA
HETATM   25  C   UNL     1     -42.129 -53.186  15.525  1.00  0.00     0.097 C 
HETATM   26  C   UNL     1     -41.440 -54.423  16.094  1.00  0.00     0.016 C 
HETATM   27  C   UNL     1     -42.544 -55.460  16.114  1.00  0.00     0.016 C 
HETATM   28  C   UNL     1     -43.360 -55.144  14.868  1.00  0.00     0.097 C 
ENDBRANCH  22  24
ENDBRANCH   4  17
TORSDOF 5
ENDMDL
