MODEL 1
REMARK VINA RESULT:      -5.7      0.000      0.000
REMARK  5 active torsions:
REMARK  status: ('A' for Active; 'I' for Inactive)
REMARK    1  A    between atoms: C_2  and  N_4 
REMARK    2  A    between atoms: C_7  and  N_10 
REMARK    3  A    between atoms: N_10  and  C_11 
REMARK    4  A    between atoms: C_11  and  C_12 
REMARK    5  A    between atoms: C_12  and  C_13 
ROOT
HETATM    1  N   UNL     1     -42.323 -50.698  12.001  1.00  0.00     0.088 N 
HETATM    2  H   UNL     1     -43.088 -50.789  11.334  1.00  0.00     0.316 HD
ENDROOT
BRANCH   1   3
HETATM    3  C   UNL     1     -42.691 -51.352  13.274  1.00  0.00     0.223 C 
HETATM    4  C   UNL     1     -42.744 -52.871  13.053  1.00  0.00     0.066 C 
HETATM    5  C   UNL     1     -44.000 -53.296  12.289  1.00  0.00     0.275 C 
HETATM    6  N   UNL     1     -45.257 -52.862  12.934  1.00  0.00     0.092 N 
HETATM    7  C   UNL     1     -45.229 -51.394  13.084  1.00  0.00     0.275 C 
HETATM    8  C   UNL     1     -44.025 -50.879  13.874  1.00  0.00     0.066 C 
BRANCH   6   9
HETATM    9  C   UNL     1     -45.571 -53.609  14.177  1.00  0.00     0.215 C 
HETATM   10  C   UNL     1     -46.934 -53.233  14.782  1.00  0.00     0.042 C 
HETATM   11  C   UNL     1     -45.598 -55.126  13.914  1.00  0.00     0.042 C 
ENDBRANCH   6   9
ENDBRANCH   1   3
BRANCH   1  12
HETATM   12  C   UNL     1     -41.981 -49.275  12.116  1.00  0.00     0.276 C 
BRANCH  12  13
HETATM   13  C   UNL     1     -41.267 -48.705  10.887  1.00  0.00     0.087 C 
BRANCH  13  14
HETATM   14  C   UNL     1     -42.154 -47.744  10.145  1.00  0.00     0.010 A 
HETATM   15  C   UNL     1     -42.359 -46.455  10.624  1.00  0.00     0.025 A 
HETATM   16  C   UNL     1     -43.191 -45.604   9.902  1.00  0.00     0.003 A 
HETATM   17  C   UNL     1     -43.786 -46.059   8.732  1.00  0.00     0.017 A 
HETATM   18  C   UNL     1     -43.517 -47.353   8.322  1.00  0.00     0.088 A 
HETATM   19  N   UNL     1     -42.712 -48.198   8.998  1.00  0.00    -0.369 N 
ATOM     20  HN  UNL     1     -42.531 -49.142   8.658  1.00  0.00     0.165 HD
ENDBRANCH  13  14
ENDBRANCH  12  13
ENDBRANCH   1  12
TORSDOF 5
ENDMDL
MODEL 2
REMARK VINA RESULT:      -5.5      3.147      4.691
REMARK  5 active torsions:
REMARK  status: ('A' for Active; 'I' for Inactive)
REMARK    1  A    between atoms: C_2  and  N_4 
REMARK    2  A    between atoms: C_7  and  N_10 
REMARK    3  A    between atoms: N_10  and  C_11 
REMARK    4  A    between atoms: C_11  and  C_12 
REMARK    5  A    between atoms: C_12  and  C_13 
ROOT
HETATM    1  N   UNL     1     -42.484 -48.554  10.767  1.00  0.00     0.088 N 
HETATM    2  H   UNL     1     -43.272 -49.176  10.592  1.00  0.00     0.316 HD
ENDROOT
BRANCH   1   3
HETATM    3  C   UNL     1     -41.953 -48.794  12.125  1.00  0.00     0.223 C 
HETATM    4  C   UNL     1     -40.435 -48.564  12.110  1.00  0.00     0.066 C 
HETATM    5  C   UNL     1     -39.685 -49.720  11.443  1.00  0.00     0.275 C 
HETATM    6  N   UNL     1     -39.964 -51.035  12.056  1.00  0.00     0.092 N 
HETATM    7  C   UNL     1     -41.419 -51.281  12.008  1.00  0.00     0.275 C 
HETATM    8  C   UNL     1     -42.249 -50.193  12.691  1.00  0.00     0.066 C 
BRANCH   6   9
HETATM    9  C   UNL     1     -39.348 -51.204  13.395  1.00  0.00     0.215 C 
HETATM   10  C   UNL     1     -39.516 -52.622  13.965  1.00  0.00     0.042 C 
HETATM   11  C   UNL     1     -37.836 -50.915  13.345  1.00  0.00     0.042 C 
ENDBRANCH   6   9
ENDBRANCH   1   3
BRANCH   1  12
HETATM   12  C   UNL     1     -42.920 -47.176  10.512  1.00  0.00     0.276 C 
BRANCH  12  13
HETATM   13  C   UNL     1     -43.241 -46.887   9.042  1.00  0.00     0.087 C 
BRANCH  13  14
HETATM   14  C   UNL     1     -44.472 -47.630   8.603  1.00  0.00     0.010 A 
HETATM   15  C   UNL     1     -45.604 -47.666   9.410  1.00  0.00     0.025 A 
HETATM   16  C   UNL     1     -46.718 -48.369   8.960  1.00  0.00     0.003 A 
HETATM   17  C   UNL     1     -46.670 -49.007   7.727  1.00  0.00     0.017 A 
HETATM   18  C   UNL     1     -45.508 -48.909   6.983  1.00  0.00     0.088 A 
HETATM   19  N   UNL     1     -44.416 -48.232   7.391  1.00  0.00    -0.369 N 
ATOM     20  HN  UNL     1     -43.580 -48.175   6.809  1.00  0.00     0.165 HD
ENDBRANCH  13  14
ENDBRANCH  12  13
ENDBRANCH   1  12
TORSDOF 5
ENDMDL
MODEL 3
REMARK VINA RESULT:      -5.4      1.366      1.538
REMARK  5 active torsions:
REMARK  status: ('A' for Active; 'I' for Inactive)
REMARK    1  A    between atoms: C_2  and  N_4 
REMARK    2  A    between atoms: C_7  and  N_10 
REMARK    3  A    between atoms: N_10  and  C_11 
REMARK    4  A    between atoms: C_11  and  C_12 
REMARK    5  A    between atoms: C_12  and  C_13 
ROOT
HETATM    1  N   UNL     1     -42.006 -49.952  11.471  1.00  0.00     0.088 N 
HETATM    2  H   UNL     1     -42.916 -49.505  11.369  1.00  0.00     0.316 HD
ENDROOT
BRANCH   1   3
HETATM    3  C   UNL     1     -41.874 -50.507  12.834  1.00  0.00     0.223 C 
HETATM    4  C   UNL     1     -41.631 -52.020  12.731  1.00  0.00     0.066 C 
HETATM    5  C   UNL     1     -42.908 -52.784  12.375  1.00  0.00     0.275 C 
HETATM    6  N   UNL     1     -44.022 -52.541  13.315  1.00  0.00     0.092 N 
HETATM    7  C   UNL     1     -44.296 -51.091  13.359  1.00  0.00     0.275 C 
HETATM    8  C   UNL     1     -43.081 -50.248  13.750  1.00  0.00     0.066 C 
BRANCH   6   9
HETATM    9  C   UNL     1     -43.825 -53.178  14.640  1.00  0.00     0.215 C 
HETATM   10  C   UNL     1     -44.993 -52.934  15.610  1.00  0.00     0.042 C 
HETATM   11  C   UNL     1     -43.670 -54.704  14.498  1.00  0.00     0.042 C 
ENDBRANCH   6   9
ENDBRANCH   1   3
BRANCH   1  12
HETATM   12  C   UNL     1     -40.972 -48.979  11.100  1.00  0.00     0.276 C 
BRANCH  12  13
HETATM   13  C   UNL     1     -41.513 -47.575  10.810  1.00  0.00     0.087 C 
BRANCH  13  14
HETATM   14  C   UNL     1     -42.746 -47.640   9.951  1.00  0.00     0.010 A 
HETATM   15  C   UNL     1     -44.005 -47.422  10.501  1.00  0.00     0.025 A 
HETATM   16  C   UNL     1     -45.115 -47.494   9.665  1.00  0.00     0.003 A 
HETATM   17  C   UNL     1     -44.938 -47.777   8.316  1.00  0.00     0.017 A 
HETATM   18  C   UNL     1     -43.649 -47.968   7.852  1.00  0.00     0.088 A 
HETATM   19  N   UNL     1     -42.555 -47.899   8.636  1.00  0.00    -0.369 N 
ATOM     20  HN  UNL     1     -41.619 -48.037   8.253  1.00  0.00     0.165 HD
ENDBRANCH  13  14
ENDBRANCH  12  13
ENDBRANCH   1  12
TORSDOF 5
ENDMDL
MODEL 4
REMARK VINA RESULT:      -5.2      3.469      6.838
REMARK  5 active torsions:
REMARK  status: ('A' for Active; 'I' for Inactive)
REMARK    1  A    between atoms: C_2  and  N_4 
REMARK    2  A    between atoms: C_7  and  N_10 
REMARK    3  A    between atoms: N_10  and  C_11 
REMARK    4  A    between atoms: C_11  and  C_12 
REMARK    5  A    between atoms: C_12  and  C_13 
ROOT
HETATM    1  N   UNL     1     -42.387 -53.654  14.613  1.00  0.00     0.088 N 
HETATM    2  H   UNL     1     -42.899 -52.829  14.924  1.00  0.00     0.316 HD
ENDROOT
BRANCH   1   3
HETATM    3  C   UNL     1     -41.732 -53.373  13.319  1.00  0.00     0.223 C 
HETATM    4  C   UNL     1     -40.216 -53.556  13.483  1.00  0.00     0.066 C 
HETATM    5  C   UNL     1     -39.575 -52.390  14.239  1.00  0.00     0.275 C 
HETATM    6  N   UNL     1     -39.834 -51.073  13.620  1.00  0.00     0.092 N 
HETATM    7  C   UNL     1     -41.293 -50.874  13.526  1.00  0.00     0.275 C 
HETATM    8  C   UNL     1     -42.015 -51.975  12.747  1.00  0.00     0.066 C 
BRANCH   6   9
HETATM    9  C   UNL     1     -39.093 -50.861  12.352  1.00  0.00     0.215 C 
HETATM   10  C   UNL     1     -39.444 -49.534  11.659  1.00  0.00     0.042 C 
HETATM   11  C   UNL     1     -37.573 -50.852  12.598  1.00  0.00     0.042 C 
ENDBRANCH   6   9
ENDBRANCH   1   3
BRANCH   1  12
HETATM   12  C   UNL     1     -43.315 -54.792  14.599  1.00  0.00     0.276 C 
BRANCH  12  13
HETATM   13  C   UNL     1     -44.519 -54.602  13.671  1.00  0.00     0.087 C 
BRANCH  13  14
HETATM   14  C   UNL     1     -45.391 -53.472  14.143  1.00  0.00     0.010 A 
HETATM   15  C   UNL     1     -45.732 -52.433  13.285  1.00  0.00     0.025 A 
HETATM   16  C   UNL     1     -46.541 -51.409  13.771  1.00  0.00     0.003 A 
HETATM   17  C   UNL     1     -46.984 -51.455  15.087  1.00  0.00     0.017 A 
HETATM   18  C   UNL     1     -46.607 -52.534  15.867  1.00  0.00     0.088 A 
HETATM   19  N   UNL     1     -45.830 -53.541  15.423  1.00  0.00    -0.369 N 
ATOM     20  HN  UNL     1     -45.581 -54.324  16.027  1.00  0.00     0.165 HD
ENDBRANCH  13  14
ENDBRANCH  12  13
ENDBRANCH   1  12
TORSDOF 5
ENDMDL
MODEL 5
REMARK VINA RESULT:      -5.1      3.301      6.644
REMARK  5 active torsions:
REMARK  status: ('A' for Active; 'I' for Inactive)
REMARK    1  A    between atoms: C_2  and  N_4 
REMARK    2  A    between atoms: C_7  and  N_10 
REMARK    3  A    between atoms: N_10  and  C_11 
REMARK    4  A    between atoms: C_11  and  C_12 
REMARK    5  A    between atoms: C_12  and  C_13 
ROOT
HETATM    1  N   UNL     1     -42.463 -54.469  14.140  1.00  0.00     0.088 N 
HETATM    2  H   UNL     1     -41.676 -55.101  14.281  1.00  0.00     0.316 HD
ENDROOT
BRANCH   1   3
HETATM    3  C   UNL     1     -42.080 -53.100  14.543  1.00  0.00     0.223 C 
HETATM    4  C   UNL     1     -42.410 -52.136  13.394  1.00  0.00     0.066 C 
HETATM    5  C   UNL     1     -41.406 -52.247  12.245  1.00  0.00     0.275 C 
HETATM    6  N   UNL     1     -40.005 -52.031  12.663  1.00  0.00     0.092 N 
HETATM    7  C   UNL     1     -39.672 -53.005  13.721  1.00  0.00     0.275 C 
HETATM    8  C   UNL     1     -40.602 -52.937  14.934  1.00  0.00     0.066 C 
BRANCH   6   9
HETATM    9  C   UNL     1     -39.701 -50.618  12.999  1.00  0.00     0.215 C 
HETATM   10  C   UNL     1     -38.263 -50.411  13.502  1.00  0.00     0.042 C 
HETATM   11  C   UNL     1     -39.882 -49.710  11.768  1.00  0.00     0.042 C 
ENDBRANCH   6   9
ENDBRANCH   1   3
BRANCH   1  12
HETATM   12  C   UNL     1     -43.625 -55.017  14.850  1.00  0.00     0.276 C 
BRANCH  12  13
HETATM   13  C   UNL     1     -44.898 -55.084  14.000  1.00  0.00     0.087 C 
BRANCH  13  14
HETATM   14  C   UNL     1     -45.596 -53.753  13.968  1.00  0.00     0.010 A 
HETATM   15  C   UNL     1     -45.954 -53.112  15.149  1.00  0.00     0.025 A 
HETATM   16  C   UNL     1     -46.600 -51.882  15.067  1.00  0.00     0.003 A 
HETATM   17  C   UNL     1     -46.865 -51.331  13.819  1.00  0.00     0.017 A 
HETATM   18  C   UNL     1     -46.463 -52.032  12.696  1.00  0.00     0.088 A 
HETATM   19  N   UNL     1     -45.832 -53.222  12.745  1.00  0.00    -0.369 N 
ATOM     20  HN  UNL     1     -45.543 -53.704  11.893  1.00  0.00     0.165 HD
ENDBRANCH  13  14
ENDBRANCH  12  13
ENDBRANCH   1  12
TORSDOF 5
ENDMDL
MODEL 6
REMARK VINA RESULT:      -5.1      2.026      7.057
REMARK  5 active torsions:
REMARK  status: ('A' for Active; 'I' for Inactive)
REMARK    1  A    between atoms: C_2  and  N_4 
REMARK    2  A    between atoms: C_7  and  N_10 
REMARK    3  A    between atoms: N_10  and  C_11 
REMARK    4  A    between atoms: C_11  and  C_12 
REMARK    5  A    between atoms: C_12  and  C_13 
ROOT
HETATM    1  N   UNL     1     -40.302 -50.810  13.418  1.00  0.00     0.088 N 
HETATM    2  H   UNL     1     -41.068 -50.549  14.037  1.00  0.00     0.316 HD
ENDROOT
BRANCH   1   3
HETATM    3  C   UNL     1     -40.548 -50.267  12.066  1.00  0.00     0.223 C 
HETATM    4  C   UNL     1     -39.401 -49.315  11.699  1.00  0.00     0.066 C 
HETATM    5  C   UNL     1     -39.511 -47.974  12.428  1.00  0.00     0.275 C 
HETATM    6  N   UNL     1     -40.798 -47.284  12.200  1.00  0.00     0.092 N 
HETATM    7  C   UNL     1     -41.895 -48.178  12.616  1.00  0.00     0.275 C 
HETATM    8  C   UNL     1     -41.889 -49.532  11.905  1.00  0.00     0.066 C 
BRANCH   6   9
HETATM    9  C   UNL     1     -40.934 -46.727  10.831  1.00  0.00     0.215 C 
HETATM   10  C   UNL     1     -42.323 -46.128  10.555  1.00  0.00     0.042 C 
HETATM   11  C   UNL     1     -39.904 -45.607  10.589  1.00  0.00     0.042 C 
ENDBRANCH   6   9
ENDBRANCH   1   3
BRANCH   1  12
HETATM   12  C   UNL     1     -40.141 -52.268  13.475  1.00  0.00     0.276 C 
BRANCH  12  13
HETATM   13  C   UNL     1     -40.877 -53.020  12.361  1.00  0.00     0.087 C 
BRANCH  13  14
HETATM   14  C   UNL     1     -42.253 -53.430  12.805  1.00  0.00     0.010 A 
HETATM   15  C   UNL     1     -42.426 -54.236  13.925  1.00  0.00     0.025 A 
HETATM   16  C   UNL     1     -43.721 -54.589  14.294  1.00  0.00     0.003 A 
HETATM   17  C   UNL     1     -44.795 -54.131  13.542  1.00  0.00     0.017 A 
HETATM   18  C   UNL     1     -44.532 -53.323  12.450  1.00  0.00     0.088 A 
HETATM   19  N   UNL     1     -43.290 -52.959  12.072  1.00  0.00    -0.369 N 
ATOM     20  HN  UNL     1     -43.138 -52.354  11.265  1.00  0.00     0.165 HD
ENDBRANCH  13  14
ENDBRANCH  12  13
ENDBRANCH   1  12
TORSDOF 5
ENDMDL
MODEL 7
REMARK VINA RESULT:      -5.1      2.549      3.217
REMARK  5 active torsions:
REMARK  status: ('A' for Active; 'I' for Inactive)
REMARK    1  A    between atoms: C_2  and  N_4 
REMARK    2  A    between atoms: C_7  and  N_10 
REMARK    3  A    between atoms: N_10  and  C_11 
REMARK    4  A    between atoms: C_11  and  C_12 
REMARK    5  A    between atoms: C_12  and  C_13 
ROOT
HETATM    1  N   UNL     1     -40.764 -50.962  11.373  1.00  0.00     0.088 N 
HETATM    2  H   UNL     1     -41.445 -51.327  10.709  1.00  0.00     0.316 HD
ENDROOT
BRANCH   1   3
HETATM    3  C   UNL     1     -41.272 -51.129  12.750  1.00  0.00     0.223 C 
HETATM    4  C   UNL     1     -40.450 -52.221  13.451  1.00  0.00     0.066 C 
HETATM    5  C   UNL     1     -40.831 -53.623  12.972  1.00  0.00     0.275 C 
HETATM    6  N   UNL     1     -42.268 -53.930  13.131  1.00  0.00     0.092 N 
HETATM    7  C   UNL     1     -43.052 -52.916  12.400  1.00  0.00     0.275 C 
HETATM    8  C   UNL     1     -42.766 -51.481  12.843  1.00  0.00     0.066 C 
BRANCH   6   9
HETATM    9  C   UNL     1     -42.675 -54.133  14.543  1.00  0.00     0.215 C 
HETATM   10  C   UNL     1     -44.016 -54.873  14.687  1.00  0.00     0.042 C 
HETATM   11  C   UNL     1     -41.622 -54.958  15.306  1.00  0.00     0.042 C 
ENDBRANCH   6   9
ENDBRANCH   1   3
BRANCH   1  12
HETATM   12  C   UNL     1     -40.452 -49.577  10.997  1.00  0.00     0.276 C 
BRANCH  12  13
HETATM   13  C   UNL     1     -39.566 -48.842  12.007  1.00  0.00     0.087 C 
BRANCH  13  14
HETATM   14  C   UNL     1     -39.726 -47.353  11.881  1.00  0.00     0.010 A 
HETATM   15  C   UNL     1     -39.547 -46.524  12.984  1.00  0.00     0.025 A 
HETATM   16  C   UNL     1     -39.708 -45.152  12.816  1.00  0.00     0.003 A 
HETATM   17  C   UNL     1     -40.037 -44.651  11.563  1.00  0.00     0.017 A 
HETATM   18  C   UNL     1     -40.183 -45.546  10.518  1.00  0.00     0.088 A 
HETATM   19  N   UNL     1     -40.029 -46.879  10.649  1.00  0.00    -0.369 N 
ATOM     20  HN  UNL     1     -40.137 -47.505   9.852  1.00  0.00     0.165 HD
ENDBRANCH  13  14
ENDBRANCH  12  13
ENDBRANCH   1  12
TORSDOF 5
ENDMDL
MODEL 8
REMARK VINA RESULT:      -5.0      1.818      2.348
REMARK  5 active torsions:
REMARK  status: ('A' for Active; 'I' for Inactive)
REMARK    1  A    between atoms: C_2  and  N_4 
REMARK    2  A    between atoms: C_7  and  N_10 
REMARK    3  A    between atoms: N_10  and  C_11 
REMARK    4  A    between atoms: C_11  and  C_12 
REMARK    5  A    between atoms: C_12  and  C_13 
ROOT
HETATM    1  N   UNL     1     -42.797 -50.150  12.168  1.00  0.00     0.088 N 
HETATM    2  H   UNL     1     -43.469 -49.386  12.124  1.00  0.00     0.316 HD
ENDROOT
BRANCH   1   3
HETATM    3  C   UNL     1     -43.007 -50.928  13.406  1.00  0.00     0.223 C 
HETATM    4  C   UNL     1     -42.776 -52.415  13.102  1.00  0.00     0.066 C 
HETATM    5  C   UNL     1     -43.945 -53.032  12.330  1.00  0.00     0.275 C 
HETATM    6  N   UNL     1     -45.247 -52.879  13.011  1.00  0.00     0.092 N 
HETATM    7  C   UNL     1     -45.495 -51.443  13.242  1.00  0.00     0.275 C 
HETATM    8  C   UNL     1     -44.394 -50.751  14.047  1.00  0.00     0.066 C 
BRANCH   6   9
HETATM    9  C   UNL     1     -45.387 -53.737  14.215  1.00  0.00     0.215 C 
HETATM   10  C   UNL     1     -46.686 -53.479  14.995  1.00  0.00     0.042 C 
HETATM   11  C   UNL     1     -45.381 -55.228  13.830  1.00  0.00     0.042 C 
ENDBRANCH   6   9
ENDBRANCH   1   3
BRANCH   1  12
HETATM   12  C   UNL     1     -41.450 -49.586  12.017  1.00  0.00     0.276 C 
BRANCH  12  13
HETATM   13  C   UNL     1     -41.317 -48.593  10.858  1.00  0.00     0.087 C 
BRANCH  13  14
HETATM   14  C   UNL     1     -40.706 -47.301  11.322  1.00  0.00     0.010 A 
HETATM   15  C   UNL     1     -40.519 -47.051  12.677  1.00  0.00     0.025 A 
HETATM   16  C   UNL     1     -39.950 -45.838  13.056  1.00  0.00     0.003 A 
HETATM   17  C   UNL     1     -39.585 -44.920  12.080  1.00  0.00     0.017 A 
HETATM   18  C   UNL     1     -39.794 -45.257  10.754  1.00  0.00     0.088 A 
HETATM   19  N   UNL     1     -40.338 -46.424  10.357  1.00  0.00    -0.369 N 
ATOM     20  HN  UNL     1     -40.468 -46.639   9.368  1.00  0.00     0.165 HD
ENDBRANCH  13  14
ENDBRANCH  12  13
ENDBRANCH   1  12
TORSDOF 5
ENDMDL
MODEL 9
REMARK VINA RESULT:      -4.9      3.344      4.602
REMARK  5 active torsions:
REMARK  status: ('A' for Active; 'I' for Inactive)
REMARK    1  A    between atoms: C_2  and  N_4 
REMARK    2  A    between atoms: C_7  and  N_10 
REMARK    3  A    between atoms: N_10  and  C_11 
REMARK    4  A    between atoms: C_11  and  C_12 
REMARK    5  A    between atoms: C_12  and  C_13 
ROOT
HETATM    1  N   UNL     1     -41.037 -53.943  14.576  1.00  0.00     0.088 N 
HETATM    2  H   UNL     1     -40.767 -54.696  15.207  1.00  0.00     0.316 HD
ENDROOT
BRANCH   1   3
HETATM    3  C   UNL     1     -42.262 -54.326  13.842  1.00  0.00     0.223 C 
HETATM    4  C   UNL     1     -42.713 -53.137  12.981  1.00  0.00     0.066 C 
HETATM    5  C   UNL     1     -43.370 -52.037  13.819  1.00  0.00     0.275 C 
HETATM    6  N   UNL     1     -44.518 -52.513  14.619  1.00  0.00     0.092 N 
HETATM    7  C   UNL     1     -44.063 -53.612  15.493  1.00  0.00     0.275 C 
HETATM    8  C   UNL     1     -43.428 -54.778  14.734  1.00  0.00     0.066 C 
BRANCH   6   9
HETATM    9  C   UNL     1     -45.718 -52.823  13.803  1.00  0.00     0.215 C 
HETATM   10  C   UNL     1     -46.916 -53.297  14.642  1.00  0.00     0.042 C 
HETATM   11  C   UNL     1     -46.182 -51.583  13.016  1.00  0.00     0.042 C 
ENDBRANCH   6   9
ENDBRANCH   1   3
BRANCH   1  12
HETATM   12  C   UNL     1     -39.885 -53.621  13.724  1.00  0.00     0.276 C 
BRANCH  12  13
HETATM   13  C   UNL     1     -38.961 -52.548  14.308  1.00  0.00     0.087 C 
BRANCH  13  14
HETATM   14  C   UNL     1     -38.867 -51.361  13.391  1.00  0.00     0.010 A 
HETATM   15  C   UNL     1     -37.656 -51.016  12.799  1.00  0.00     0.025 A 
HETATM   16  C   UNL     1     -37.621 -49.907  11.959  1.00  0.00     0.003 A 
HETATM   17  C   UNL     1     -38.784 -49.183  11.734  1.00  0.00     0.017 A 
HETATM   18  C   UNL     1     -39.948 -49.604  12.354  1.00  0.00     0.088 A 
HETATM   19  N   UNL     1     -40.014 -50.676  13.168  1.00  0.00    -0.369 N 
ATOM     20  HN  UNL     1     -40.893 -50.960  13.599  1.00  0.00     0.165 HD
ENDBRANCH  13  14
ENDBRANCH  12  13
ENDBRANCH   1  12
TORSDOF 5
ENDMDL
