MODEL 1
REMARK VINA RESULT:      -5.9      0.000      0.000
REMARK  5 active torsions:
REMARK  status: ('A' for Active; 'I' for Inactive)
REMARK    1  A    between atoms: O_2  and  C_3 
REMARK    2  A    between atoms: C_6  and  N_7 
REMARK       I    between atoms: N_7  and  C_8 
REMARK       I    between atoms: C_8  and  N_10 
REMARK    3  A    between atoms: N_10  and  C_11 
REMARK    4  A    between atoms: C_11  and  C_13 
REMARK    5  A    between atoms: C_13  and  N_14 
ROOT
HETATM    1  N   UNL     1     -42.218 -52.354  11.765  1.00  0.00    -0.308 N 
HETATM    2  C   UNL     1     -41.663 -51.155  12.155  1.00  0.00     0.321 C 
HETATM    3  O   UNL     1     -41.967 -50.538  13.174  1.00  0.00    -0.247 OA
HETATM    4  N   UNL     1     -40.711 -50.678  11.286  1.00  0.00    -0.337 N 
HETATM    5  H   UNL     1     -42.184 -52.561  10.778  1.00  0.00     0.170 HD
HETATM    6  H   UNL     1     -40.274 -51.339  10.662  1.00  0.00     0.164 HD
ENDROOT
BRANCH   1   7
HETATM    7  C   UNL     1     -43.137 -53.082  12.564  1.00  0.00     0.051 A 
HETATM    8  C   UNL     1     -42.738 -54.000  13.536  1.00  0.00     0.035 A 
HETATM    9  C   UNL     1     -43.685 -54.630  14.339  1.00  0.00     0.058 A 
HETATM   10  C   UNL     1     -45.019 -54.340  14.127  1.00  0.00     0.141 A 
HETATM   11  N   UNL     1     -45.460 -53.497  13.166  1.00  0.00    -0.345 N 
HETATM   12  C   UNL     1     -44.508 -52.895  12.406  1.00  0.00     0.119 A 
ATOM     13  HN  UNL     1     -46.454 -53.323  13.019  1.00  0.00     0.167 HD
BRANCH  10  14
HETATM   14  O   UNL     1     -45.913 -54.981  14.961  1.00  0.00    -0.341 OA
HETATM   15  C   UNL     1     -46.193 -54.245  16.145  1.00  0.00     0.211 C 
ENDBRANCH  10  14
ENDBRANCH   1   7
BRANCH   4  16
HETATM   16  C   UNL     1     -39.914 -49.529  11.724  1.00  0.00     0.110 C 
HETATM   17  C   UNL     1     -38.431 -49.820  11.481  1.00  0.00     0.034 C 
BRANCH  16  18
HETATM   18  C   UNL     1     -40.338 -48.179  11.088  1.00  0.00     0.297 C 
BRANCH  18  19
HETATM   19  N   UNL     1     -41.482 -47.481  11.713  1.00  0.00     0.094 N 
HETATM   20  C   UNL     1     -42.713 -47.624  10.898  1.00  0.00     0.298 C 
HETATM   21  C   UNL     1     -42.779 -46.704   9.663  1.00  0.00     0.198 C 
HETATM   22  O   UNL     1     -42.585 -45.330  10.015  1.00  0.00    -0.388 OA
HETATM   23  C   UNL     1     -41.343 -45.151  10.706  1.00  0.00     0.198 C 
HETATM   24  C   UNL     1     -41.270 -46.037  11.962  1.00  0.00     0.298 C 
ENDBRANCH  18  19
ENDBRANCH  16  18
ENDBRANCH   4  16
TORSDOF 5
ENDMDL
MODEL 2
REMARK VINA RESULT:      -5.6      1.987      8.498
REMARK  5 active torsions:
REMARK  status: ('A' for Active; 'I' for Inactive)
REMARK    1  A    between atoms: O_2  and  C_3 
REMARK    2  A    between atoms: C_6  and  N_7 
REMARK       I    between atoms: N_7  and  C_8 
REMARK       I    between atoms: C_8  and  N_10 
REMARK    3  A    between atoms: N_10  and  C_11 
REMARK    4  A    between atoms: C_11  and  C_13 
REMARK    5  A    between atoms: C_13  and  N_14 
ROOT
HETATM    1  N   UNL     1     -42.738 -49.348  11.459  1.00  0.00    -0.308 N 
HETATM    2  C   UNL     1     -43.229 -49.579  12.726  1.00  0.00     0.321 C 
HETATM    3  O   UNL     1     -43.161 -48.785  13.662  1.00  0.00    -0.247 OA
HETATM    4  N   UNL     1     -43.818 -50.812  12.874  1.00  0.00    -0.337 N 
HETATM    5  H   UNL     1     -42.509 -50.166  10.914  1.00  0.00     0.170 HD
HETATM    6  H   UNL     1     -44.134 -51.282  12.039  1.00  0.00     0.164 HD
ENDROOT
BRANCH   1   7
HETATM    7  C   UNL     1     -42.190 -48.105  11.053  1.00  0.00     0.051 A 
HETATM    8  C   UNL     1     -42.975 -47.004  10.708  1.00  0.00     0.035 A 
HETATM    9  C   UNL     1     -42.380 -45.788  10.387  1.00  0.00     0.058 A 
HETATM   10  C   UNL     1     -41.000 -45.712  10.396  1.00  0.00     0.141 A 
HETATM   11  N   UNL     1     -40.194 -46.762  10.673  1.00  0.00    -0.345 N 
HETATM   12  C   UNL     1     -40.810 -47.931  10.989  1.00  0.00     0.119 A 
ATOM     13  HN  UNL     1     -39.178 -46.680  10.647  1.00  0.00     0.167 HD
BRANCH  10  14
HETATM   14  O   UNL     1     -40.464 -44.479  10.085  1.00  0.00    -0.341 OA
HETATM   15  C   UNL     1     -40.327 -43.632  11.218  1.00  0.00     0.211 C 
ENDBRANCH  10  14
ENDBRANCH   1   7
BRANCH   4  16
HETATM   16  C   UNL     1     -44.559 -51.060  14.114  1.00  0.00     0.110 C 
HETATM   17  C   UNL     1     -46.018 -51.381  13.776  1.00  0.00     0.034 C 
BRANCH  16  18
HETATM   18  C   UNL     1     -43.934 -52.152  15.022  1.00  0.00     0.297 C 
BRANCH  18  19
HETATM   19  N   UNL     1     -44.661 -53.436  15.113  1.00  0.00     0.094 N 
HETATM   20  C   UNL     1     -44.930 -53.806  16.523  1.00  0.00     0.298 C 
HETATM   21  C   UNL     1     -43.721 -54.395  17.276  1.00  0.00     0.198 C 
HETATM   22  O   UNL     1     -43.155 -55.510  16.580  1.00  0.00    -0.388 OA
HETATM   23  C   UNL     1     -42.783 -55.143  15.246  1.00  0.00     0.198 C 
HETATM   24  C   UNL     1     -43.984 -54.582  14.466  1.00  0.00     0.298 C 
ENDBRANCH  18  19
ENDBRANCH  16  18
ENDBRANCH   4  16
TORSDOF 5
ENDMDL
MODEL 3
REMARK VINA RESULT:      -5.6      1.721      2.039
REMARK  5 active torsions:
REMARK  status: ('A' for Active; 'I' for Inactive)
REMARK    1  A    between atoms: O_2  and  C_3 
REMARK    2  A    between atoms: C_6  and  N_7 
REMARK       I    between atoms: N_7  and  C_8 
REMARK       I    between atoms: C_8  and  N_10 
REMARK    3  A    between atoms: N_10  and  C_11 
REMARK    4  A    between atoms: C_11  and  C_13 
REMARK    5  A    between atoms: C_13  and  N_14 
ROOT
HETATM    1  N   UNL     1     -41.846 -52.707  12.275  1.00  0.00    -0.308 N 
HETATM    2  C   UNL     1     -41.820 -51.340  12.448  1.00  0.00     0.321 C 
HETATM    3  O   UNL     1     -42.107 -50.759  13.493  1.00  0.00    -0.247 OA
HETATM    4  N   UNL     1     -41.438 -50.648  11.324  1.00  0.00    -0.337 N 
HETATM    5  H   UNL     1     -41.968 -53.033  11.327  1.00  0.00     0.170 HD
HETATM    6  H   UNL     1     -40.919 -51.149  10.620  1.00  0.00     0.164 HD
ENDROOT
BRANCH   1   7
HETATM    7  C   UNL     1     -42.103 -53.620  13.329  1.00  0.00     0.051 A 
HETATM    8  C   UNL     1     -41.115 -54.063  14.208  1.00  0.00     0.035 A 
HETATM    9  C   UNL     1     -41.442 -54.903  15.269  1.00  0.00     0.058 A 
HETATM   10  C   UNL     1     -42.758 -55.301  15.407  1.00  0.00     0.141 A 
HETATM   11  N   UNL     1     -43.743 -54.940  14.553  1.00  0.00    -0.345 N 
HETATM   12  C   UNL     1     -43.389 -54.114  13.534  1.00  0.00     0.119 A 
ATOM     13  HN  UNL     1     -44.701 -55.271  14.668  1.00  0.00     0.167 HD
BRANCH  10  14
HETATM   14  O   UNL     1     -43.029 -56.120  16.484  1.00  0.00    -0.341 OA
HETATM   15  C   UNL     1     -41.900 -56.324  17.323  1.00  0.00     0.211 C 
ENDBRANCH  10  14
ENDBRANCH   1   7
BRANCH   4  16
HETATM   16  C   UNL     1     -41.170 -49.214  11.474  1.00  0.00     0.110 C 
HETATM   17  C   UNL     1     -39.657 -48.986  11.529  1.00  0.00     0.034 C 
BRANCH  16  18
HETATM   18  C   UNL     1     -41.840 -48.324  10.395  1.00  0.00     0.297 C 
BRANCH  18  19
HETATM   19  N   UNL     1     -43.085 -47.629  10.787  1.00  0.00     0.094 N 
HETATM   20  C   UNL     1     -43.955 -47.377   9.613  1.00  0.00     0.298 C 
HETATM   21  C   UNL     1     -43.523 -46.186   8.735  1.00  0.00     0.198 C 
HETATM   22  O   UNL     1     -43.380 -44.986   9.502  1.00  0.00    -0.388 OA
HETATM   23  C   UNL     1     -42.454 -45.175  10.578  1.00  0.00     0.198 C 
HETATM   24  C   UNL     1     -42.885 -46.340  11.487  1.00  0.00     0.298 C 
ENDBRANCH  18  19
ENDBRANCH  16  18
ENDBRANCH   4  16
TORSDOF 5
ENDMDL
MODEL 4
REMARK VINA RESULT:      -5.5      1.387      7.611
REMARK  5 active torsions:
REMARK  status: ('A' for Active; 'I' for Inactive)
REMARK    1  A    between atoms: O_2  and  C_3 
REMARK    2  A    between atoms: C_6  and  N_7 
REMARK       I    between atoms: N_7  and  C_8 
REMARK       I    between atoms: C_8  and  N_10 
REMARK    3  A    between atoms: N_10  and  C_11 
REMARK    4  A    between atoms: C_11  and  C_13 
REMARK    5  A    between atoms: C_13  and  N_14 
ROOT
HETATM    1  N   UNL     1     -40.798 -50.762  11.121  1.00  0.00    -0.308 N 
HETATM    2  C   UNL     1     -41.311 -51.496  12.168  1.00  0.00     0.321 C 
HETATM    3  O   UNL     1     -41.642 -51.031  13.257  1.00  0.00    -0.247 OA
HETATM    4  N   UNL     1     -41.428 -52.838  11.897  1.00  0.00    -0.337 N 
HETATM    5  H   UNL     1     -40.228 -51.268  10.459  1.00  0.00     0.170 HD
HETATM    6  H   UNL     1     -41.455 -53.119  10.929  1.00  0.00     0.164 HD
ENDROOT
BRANCH   1   7
HETATM    7  C   UNL     1     -40.695 -49.348  11.140  1.00  0.00     0.051 A 
HETATM    8  C   UNL     1     -39.693 -48.668  11.833  1.00  0.00     0.035 A 
HETATM    9  C   UNL     1     -39.599 -47.282  11.755  1.00  0.00     0.058 A 
HETATM   10  C   UNL     1     -40.536 -46.604  10.998  1.00  0.00     0.141 A 
HETATM   11  N   UNL     1     -41.555 -47.211  10.349  1.00  0.00    -0.345 N 
HETATM   12  C   UNL     1     -41.611 -48.565  10.441  1.00  0.00     0.119 A 
ATOM     13  HN  UNL     1     -42.245 -46.680   9.818  1.00  0.00     0.167 HD
BRANCH  10  14
HETATM   14  O   UNL     1     -40.387 -45.233  10.943  1.00  0.00    -0.341 OA
HETATM   15  C   UNL     1     -39.438 -44.817   9.970  1.00  0.00     0.211 C 
ENDBRANCH  10  14
ENDBRANCH   1   7
BRANCH   4  16
HETATM   16  C   UNL     1     -42.163 -53.660  12.863  1.00  0.00     0.110 C 
HETATM   17  C   UNL     1     -41.251 -53.983  14.050  1.00  0.00     0.034 C 
BRANCH  16  18
HETATM   18  C   UNL     1     -43.507 -53.042  13.333  1.00  0.00     0.297 C 
BRANCH  18  19
HETATM   19  N   UNL     1     -44.741 -53.668  12.814  1.00  0.00     0.094 N 
HETATM   20  C   UNL     1     -45.812 -52.663  12.611  1.00  0.00     0.298 C 
HETATM   21  C   UNL     1     -46.533 -52.221  13.900  1.00  0.00     0.198 C 
HETATM   22  O   UNL     1     -47.048 -53.340  14.630  1.00  0.00    -0.388 OA
HETATM   23  C   UNL     1     -46.005 -54.272  14.936  1.00  0.00     0.198 C 
HETATM   24  C   UNL     1     -45.293 -54.752  13.659  1.00  0.00     0.298 C 
ENDBRANCH  18  19
ENDBRANCH  16  18
ENDBRANCH   4  16
TORSDOF 5
ENDMDL
MODEL 5
REMARK VINA RESULT:      -5.5      2.204      8.165
REMARK  5 active torsions:
REMARK  status: ('A' for Active; 'I' for Inactive)
REMARK    1  A    between atoms: O_2  and  C_3 
REMARK    2  A    between atoms: C_6  and  N_7 
REMARK       I    between atoms: N_7  and  C_8 
REMARK       I    between atoms: C_8  and  N_10 
REMARK    3  A    between atoms: N_10  and  C_11 
REMARK    4  A    between atoms: C_11  and  C_13 
REMARK    5  A    between atoms: C_13  and  N_14 
ROOT
HETATM    1  N   UNL     1     -41.555 -49.755  11.141  1.00  0.00    -0.308 N 
HETATM    2  C   UNL     1     -42.265 -50.241  12.218  1.00  0.00     0.321 C 
HETATM    3  O   UNL     1     -42.658 -49.562  13.165  1.00  0.00    -0.247 OA
HETATM    4  N   UNL     1     -42.507 -51.592  12.154  1.00  0.00    -0.337 N 
HETATM    5  H   UNL     1     -40.978 -50.422  10.649  1.00  0.00     0.170 HD
HETATM    6  H   UNL     1     -42.459 -52.034  11.249  1.00  0.00     0.164 HD
ENDROOT
BRANCH   1   7
HETATM    7  C   UNL     1     -41.289 -48.376  10.944  1.00  0.00     0.051 A 
HETATM    8  C   UNL     1     -40.182 -47.730  11.494  1.00  0.00     0.035 A 
HETATM    9  C   UNL     1     -39.933 -46.391  11.206  1.00  0.00     0.058 A 
HETATM   10  C   UNL     1     -40.823 -45.722  10.388  1.00  0.00     0.141 A 
HETATM   11  N   UNL     1     -41.937 -46.288   9.871  1.00  0.00    -0.345 N 
HETATM   12  C   UNL     1     -42.143 -47.597  10.167  1.00  0.00     0.119 A 
ATOM     13  HN  UNL     1     -42.587 -45.759   9.290  1.00  0.00     0.167 HD
BRANCH  10  14
HETATM   14  O   UNL     1     -40.520 -44.401  10.123  1.00  0.00    -0.341 OA
HETATM   15  C   UNL     1     -40.613 -43.570  11.272  1.00  0.00     0.211 C 
ENDBRANCH  10  14
ENDBRANCH   1   7
BRANCH   4  16
HETATM   16  C   UNL     1     -43.438 -52.156  13.137  1.00  0.00     0.110 C 
HETATM   17  C   UNL     1     -44.413 -53.099  12.427  1.00  0.00     0.034 C 
BRANCH  16  18
HETATM   18  C   UNL     1     -42.749 -52.853  14.340  1.00  0.00     0.297 C 
BRANCH  18  19
HETATM   19  N   UNL     1     -42.226 -54.216  14.107  1.00  0.00     0.094 N 
HETATM   20  C   UNL     1     -42.562 -55.124  15.230  1.00  0.00     0.298 C 
HETATM   21  C   UNL     1     -41.676 -54.957  16.480  1.00  0.00     0.198 C 
HETATM   22  O   UNL     1     -40.285 -55.070  16.162  1.00  0.00    -0.388 OA
HETATM   23  C   UNL     1     -39.912 -54.122  15.156  1.00  0.00     0.198 C 
HETATM   24  C   UNL     1     -40.764 -54.292  13.886  1.00  0.00     0.298 C 
ENDBRANCH  18  19
ENDBRANCH  16  18
ENDBRANCH   4  16
TORSDOF 5
ENDMDL
MODEL 6
REMARK VINA RESULT:      -5.4      3.241      3.955
REMARK  5 active torsions:
REMARK  status: ('A' for Active; 'I' for Inactive)
REMARK    1  A    between atoms: O_2  and  C_3 
REMARK    2  A    between atoms: C_6  and  N_7 
REMARK       I    between atoms: N_7  and  C_8 
REMARK       I    between atoms: C_8  and  N_10 
REMARK    3  A    between atoms: N_10  and  C_11 
REMARK    4  A    between atoms: C_11  and  C_13 
REMARK    5  A    between atoms: C_13  and  N_14 
ROOT
HETATM    1  N   UNL     1     -42.351 -50.420  12.157  1.00  0.00    -0.308 N 
HETATM    2  C   UNL     1     -41.855 -49.359  11.431  1.00  0.00     0.321 C 
HETATM    3  O   UNL     1     -40.668 -49.187  11.159  1.00  0.00    -0.247 OA
HETATM    4  N   UNL     1     -42.820 -48.470  11.022  1.00  0.00    -0.337 N 
HETATM    5  H   UNL     1     -43.230 -50.265  12.629  1.00  0.00     0.170 HD
HETATM    6  H   UNL     1     -43.773 -48.799  10.984  1.00  0.00     0.164 HD
ENDROOT
BRANCH   1   7
HETATM    7  C   UNL     1     -41.552 -51.511  12.584  1.00  0.00     0.051 A 
HETATM    8  C   UNL     1     -40.813 -51.494  13.767  1.00  0.00     0.035 A 
HETATM    9  C   UNL     1     -40.105 -52.623  14.171  1.00  0.00     0.058 A 
HETATM   10  C   UNL     1     -40.135 -53.739  13.358  1.00  0.00     0.141 A 
HETATM   11  N   UNL     1     -40.793 -53.789  12.177  1.00  0.00    -0.345 N 
HETATM   12  C   UNL     1     -41.479 -52.673  11.819  1.00  0.00     0.119 A 
ATOM     13  HN  UNL     1     -40.775 -54.621  11.587  1.00  0.00     0.167 HD
BRANCH  10  14
HETATM   14  O   UNL     1     -39.428 -54.834  13.813  1.00  0.00    -0.341 OA
HETATM   15  C   UNL     1     -39.124 -54.760  15.199  1.00  0.00     0.211 C 
ENDBRANCH  10  14
ENDBRANCH   1   7
BRANCH   4  16
HETATM   16  C   UNL     1     -42.420 -47.434  10.065  1.00  0.00     0.110 C 
HETATM   17  C   UNL     1     -43.270 -47.561   8.798  1.00  0.00     0.034 C 
BRANCH  16  18
HETATM   18  C   UNL     1     -42.462 -45.991  10.633  1.00  0.00     0.297 C 
BRANCH  18  19
HETATM   19  N   UNL     1     -41.237 -45.180  10.472  1.00  0.00     0.094 N 
HETATM   20  C   UNL     1     -40.031 -45.932  10.895  1.00  0.00     0.298 C 
HETATM   21  C   UNL     1     -39.823 -46.010  12.420  1.00  0.00     0.198 C 
HETATM   22  O   UNL     1     -39.823 -44.712  13.023  1.00  0.00    -0.388 OA
HETATM   23  C   UNL     1     -41.033 -44.008  12.719  1.00  0.00     0.198 C 
HETATM   24  C   UNL     1     -41.243 -43.890  11.199  1.00  0.00     0.298 C 
ENDBRANCH  18  19
ENDBRANCH  16  18
ENDBRANCH   4  16
TORSDOF 5
ENDMDL
MODEL 7
REMARK VINA RESULT:      -5.2      2.619      7.920
REMARK  5 active torsions:
REMARK  status: ('A' for Active; 'I' for Inactive)
REMARK    1  A    between atoms: O_2  and  C_3 
REMARK    2  A    between atoms: C_6  and  N_7 
REMARK       I    between atoms: N_7  and  C_8 
REMARK       I    between atoms: C_8  and  N_10 
REMARK    3  A    between atoms: N_10  and  C_11 
REMARK    4  A    between atoms: C_11  and  C_13 
REMARK    5  A    between atoms: C_13  and  N_14 
ROOT
HETATM    1  N   UNL     1     -43.233 -48.859  11.554  1.00  0.00    -0.308 N 
HETATM    2  C   UNL     1     -42.983 -49.540  12.725  1.00  0.00     0.321 C 
HETATM    3  O   UNL     1     -42.093 -49.259  13.525  1.00  0.00    -0.247 OA
HETATM    4  N   UNL     1     -43.832 -50.600  12.941  1.00  0.00    -0.337 N 
HETATM    5  H   UNL     1     -43.701 -49.381  10.826  1.00  0.00     0.170 HD
HETATM    6  H   UNL     1     -44.714 -50.599  12.452  1.00  0.00     0.164 HD
ENDROOT
BRANCH   1   7
HETATM    7  C   UNL     1     -42.554 -47.671  11.185  1.00  0.00     0.051 A 
HETATM    8  C   UNL     1     -43.102 -46.399  11.353  1.00  0.00     0.035 A 
HETATM    9  C   UNL     1     -42.358 -45.265  11.041  1.00  0.00     0.058 A 
HETATM   10  C   UNL     1     -41.082 -45.437  10.539  1.00  0.00     0.141 A 
HETATM   11  N   UNL     1     -40.524 -46.648  10.310  1.00  0.00    -0.345 N 
HETATM   12  C   UNL     1     -41.276 -47.732  10.634  1.00  0.00     0.119 A 
ATOM     13  HN  UNL     1     -39.588 -46.742   9.915  1.00  0.00     0.167 HD
BRANCH  10  14
HETATM   14  O   UNL     1     -40.384 -44.280  10.260  1.00  0.00    -0.341 OA
HETATM   15  C   UNL     1     -39.142 -44.523   9.612  1.00  0.00     0.211 C 
ENDBRANCH  10  14
ENDBRANCH   1   7
BRANCH   4  16
HETATM   16  C   UNL     1     -43.786 -51.244  14.257  1.00  0.00     0.110 C 
HETATM   17  C   UNL     1     -45.110 -51.001  14.985  1.00  0.00     0.034 C 
BRANCH  16  18
HETATM   18  C   UNL     1     -43.430 -52.753  14.216  1.00  0.00     0.297 C 
BRANCH  18  19
HETATM   19  N   UNL     1     -42.222 -53.171  14.960  1.00  0.00     0.094 N 
HETATM   20  C   UNL     1     -41.154 -52.147  14.872  1.00  0.00     0.298 C 
HETATM   21  C   UNL     1     -40.376 -52.139  13.542  1.00  0.00     0.198 C 
HETATM   22  O   UNL     1     -39.840 -53.430  13.234  1.00  0.00    -0.388 OA
HETATM   23  C   UNL     1     -40.876 -54.418  13.201  1.00  0.00     0.198 C 
HETATM   24  C   UNL     1     -41.644 -54.465  14.534  1.00  0.00     0.298 C 
ENDBRANCH  18  19
ENDBRANCH  16  18
ENDBRANCH   4  16
TORSDOF 5
ENDMDL
MODEL 8
REMARK VINA RESULT:      -5.0      3.416      8.276
REMARK  5 active torsions:
REMARK  status: ('A' for Active; 'I' for Inactive)
REMARK    1  A    between atoms: O_2  and  C_3 
REMARK    2  A    between atoms: C_6  and  N_7 
REMARK       I    between atoms: N_7  and  C_8 
REMARK       I    between atoms: C_8  and  N_10 
REMARK    3  A    between atoms: N_10  and  C_11 
REMARK    4  A    between atoms: C_11  and  C_13 
REMARK    5  A    between atoms: C_13  and  N_14 
ROOT
HETATM    1  N   UNL     1     -39.670 -46.696  12.863  1.00  0.00    -0.308 N 
HETATM    2  C   UNL     1     -39.674 -47.960  12.314  1.00  0.00     0.321 C 
HETATM    3  O   UNL     1     -40.380 -48.315  11.372  1.00  0.00    -0.247 OA
HETATM    4  N   UNL     1     -38.800 -48.829  12.922  1.00  0.00    -0.337 N 
HETATM    5  H   UNL     1     -39.363 -46.628  13.823  1.00  0.00     0.170 HD
HETATM    6  H   UNL     1     -38.038 -48.433  13.450  1.00  0.00     0.164 HD
ENDROOT
BRANCH   1   7
HETATM    7  C   UNL     1     -40.410 -45.612  12.326  1.00  0.00     0.051 A 
HETATM    8  C   UNL     1     -39.819 -44.567  11.616  1.00  0.00     0.035 A 
HETATM    9  C   UNL     1     -40.606 -43.568  11.049  1.00  0.00     0.058 A 
HETATM   10  C   UNL     1     -41.974 -43.630  11.232  1.00  0.00     0.141 A 
HETATM   11  N   UNL     1     -42.591 -44.593  11.953  1.00  0.00    -0.345 N 
HETATM   12  C   UNL     1     -41.793 -45.555  12.485  1.00  0.00     0.119 A 
ATOM     13  HN  UNL     1     -43.602 -44.597  12.091  1.00  0.00     0.167 HD
BRANCH  10  14
HETATM   14  O   UNL     1     -42.706 -42.623  10.636  1.00  0.00    -0.341 OA
HETATM   15  C   UNL     1     -42.262 -41.323  11.001  1.00  0.00     0.211 C 
ENDBRANCH  10  14
ENDBRANCH   1   7
BRANCH   4  16
HETATM   16  C   UNL     1     -38.575 -50.123  12.271  1.00  0.00     0.110 C 
HETATM   17  C   UNL     1     -37.379 -50.010  11.321  1.00  0.00     0.034 C 
BRANCH  16  18
HETATM   18  C   UNL     1     -38.408 -51.311  13.255  1.00  0.00     0.297 C 
BRANCH  18  19
HETATM   19  N   UNL     1     -39.604 -51.704  14.030  1.00  0.00     0.094 N 
HETATM   20  C   UNL     1     -39.387 -52.984  14.746  1.00  0.00     0.298 C 
HETATM   21  C   UNL     1     -39.499 -54.243  13.864  1.00  0.00     0.198 C 
HETATM   22  O   UNL     1     -40.743 -54.286  13.157  1.00  0.00    -0.388 OA
HETATM   23  C   UNL     1     -40.922 -53.104  12.367  1.00  0.00     0.198 C 
HETATM   24  C   UNL     1     -40.846 -51.836  13.235  1.00  0.00     0.298 C 
ENDBRANCH  18  19
ENDBRANCH  16  18
ENDBRANCH   4  16
TORSDOF 5
ENDMDL
MODEL 9
REMARK VINA RESULT:      -4.9      2.214      3.040
REMARK  5 active torsions:
REMARK  status: ('A' for Active; 'I' for Inactive)
REMARK    1  A    between atoms: O_2  and  C_3 
REMARK    2  A    between atoms: C_6  and  N_7 
REMARK       I    between atoms: N_7  and  C_8 
REMARK       I    between atoms: C_8  and  N_10 
REMARK    3  A    between atoms: N_10  and  C_11 
REMARK    4  A    between atoms: C_11  and  C_13 
REMARK    5  A    between atoms: C_13  and  N_14 
ROOT
HETATM    1  N   UNL     1     -41.371 -50.149  13.871  1.00  0.00    -0.308 N 
HETATM    2  C   UNL     1     -41.688 -48.809  13.833  1.00  0.00     0.321 C 
HETATM    3  O   UNL     1     -42.766 -48.352  13.458  1.00  0.00    -0.247 OA
HETATM    4  N   UNL     1     -40.670 -47.988  14.257  1.00  0.00    -0.337 N 
HETATM    5  H   UNL     1     -40.389 -50.377  13.822  1.00  0.00     0.170 HD
HETATM    6  H   UNL     1     -39.954 -48.394  14.839  1.00  0.00     0.164 HD
ENDROOT
BRANCH   1   7
HETATM    7  C   UNL     1     -42.305 -51.178  13.584  1.00  0.00     0.051 A 
HETATM    8  C   UNL     1     -43.326 -51.543  14.462  1.00  0.00     0.035 A 
HETATM    9  C   UNL     1     -44.257 -52.510  14.094  1.00  0.00     0.058 A 
HETATM   10  C   UNL     1     -44.124 -53.109  12.856  1.00  0.00     0.141 A 
HETATM   11  N   UNL     1     -43.123 -52.828  11.991  1.00  0.00    -0.345 N 
HETATM   12  C   UNL     1     -42.238 -51.874  12.380  1.00  0.00     0.119 A 
ATOM     13  HN  UNL     1     -43.039 -53.306  11.094  1.00  0.00     0.167 HD
BRANCH  10  14
HETATM   14  O   UNL     1     -45.082 -54.050  12.537  1.00  0.00    -0.341 OA
HETATM   15  C   UNL     1     -45.404 -54.905  13.625  1.00  0.00     0.211 C 
ENDBRANCH  10  14
ENDBRANCH   1   7
BRANCH   4  16
HETATM   16  C   UNL     1     -40.987 -46.571  14.458  1.00  0.00     0.110 C 
HETATM   17  C   UNL     1     -40.461 -46.125  15.825  1.00  0.00     0.034 C 
BRANCH  16  18
HETATM   18  C   UNL     1     -40.486 -45.638  13.325  1.00  0.00     0.297 C 
BRANCH  18  19
HETATM   19  N   UNL     1     -41.362 -45.500  12.143  1.00  0.00     0.094 N 
HETATM   20  C   UNL     1     -40.738 -46.092  10.935  1.00  0.00     0.298 C 
HETATM   21  C   UNL     1     -39.651 -45.218  10.278  1.00  0.00     0.198 C 
HETATM   22  O   UNL     1     -40.136 -43.904   9.981  1.00  0.00    -0.388 OA
HETATM   23  C   UNL     1     -40.643 -43.269  11.161  1.00  0.00     0.198 C 
HETATM   24  C   UNL     1     -41.752 -44.110  11.815  1.00  0.00     0.298 C 
ENDBRANCH  18  19
ENDBRANCH  16  18
ENDBRANCH   4  16
TORSDOF 5
ENDMDL
