MODEL 1
REMARK VINA RESULT:      -6.3      0.000      0.000
REMARK  3 active torsions:
REMARK  status: ('A' for Active; 'I' for Inactive)
REMARK    1  A    between atoms: C_2  and  N_3 
REMARK    2  A    between atoms: C_2  and  C_16 
REMARK       I    between atoms: N_3  and  C_4 
REMARK       I    between atoms: C_4  and  N_6 
REMARK    3  A    between atoms: N_6  and  C_7 
ROOT
HETATM    1  N   UNL     1     -41.606 -48.273   9.916  1.00  0.00    -0.336 N 
HETATM    2  C   UNL     1     -41.434 -49.090  11.009  1.00  0.00     0.321 C 
HETATM    3  O   UNL     1     -42.108 -48.931  12.024  1.00  0.00    -0.247 OA
HETATM    4  N   UNL     1     -40.418 -50.012  10.861  1.00  0.00    -0.307 N 
HETATM    5  H   UNL     1     -41.381 -48.645   9.003  1.00  0.00     0.164 HD
HETATM    6  H   UNL     1     -39.781 -49.826  10.103  1.00  0.00     0.170 HD
ENDROOT
BRANCH   1   7
HETATM    7  C   UNL     1     -42.676 -47.260   9.957  1.00  0.00     0.111 C 
HETATM    8  C   UNL     1     -43.461 -47.274   8.642  1.00  0.00     0.035 C 
BRANCH   7   9
HETATM    9  C   UNL     1     -42.122 -45.874  10.335  1.00  0.00     0.143 C 
HETATM   10  C   UNL     1     -40.599 -45.796  10.367  1.00  0.00     0.036 C 
HETATM   11  C   UNL     1     -40.286 -44.835  11.494  1.00  0.00     0.029 C 
HETATM   12  C   UNL     1     -41.637 -44.432  12.047  1.00  0.00     0.168 C 
HETATM   13  O   UNL     1     -42.555 -45.454  11.640  1.00  0.00    -0.384 OA
ENDBRANCH   7   9
ENDBRANCH   1   7
BRANCH   4  14
HETATM   14  C   UNL     1     -40.029 -50.925  11.833  1.00  0.00     0.058 A 
HETATM   15  C   UNL     1     -40.733 -52.044  12.098  1.00  0.00     0.123 A 
HETATM   16  N   UNL     1     -40.412 -52.919  13.119  1.00  0.00    -0.327 N 
HETATM   17  C   UNL     1     -41.313 -54.015  13.427  1.00  0.00     0.159 C 
HETATM   18  C   UNL     1     -39.325 -52.711  13.951  1.00  0.00     0.247 A 
HETATM   19  O   UNL     1     -39.021 -53.420  14.904  1.00  0.00    -0.268 OA
HETATM   20  C   UNL     1     -38.499 -51.517  13.634  1.00  0.00     0.083 A 
HETATM   21  C   UNL     1     -38.825 -50.671  12.636  1.00  0.00    -0.029 A 
HETATM   22  C   UNL     1     -37.982 -49.452  12.397  1.00  0.00     0.050 C 
ENDBRANCH   4  14
TORSDOF 3
ENDMDL
MODEL 2
REMARK VINA RESULT:      -6.2      2.368      7.009
REMARK  3 active torsions:
REMARK  status: ('A' for Active; 'I' for Inactive)
REMARK    1  A    between atoms: C_2  and  N_3 
REMARK    2  A    between atoms: C_2  and  C_16 
REMARK       I    between atoms: N_3  and  C_4 
REMARK       I    between atoms: C_4  and  N_6 
REMARK    3  A    between atoms: N_6  and  C_7 
ROOT
HETATM    1  N   UNL     1     -41.724 -52.062  11.969  1.00  0.00    -0.336 N 
HETATM    2  C   UNL     1     -41.761 -50.696  12.130  1.00  0.00     0.321 C 
HETATM    3  O   UNL     1     -42.201 -50.197  13.163  1.00  0.00    -0.247 OA
HETATM    4  N   UNL     1     -41.337 -49.993  11.021  1.00  0.00    -0.307 N 
HETATM    5  H   UNL     1     -41.020 -52.449  11.356  1.00  0.00     0.164 HD
HETATM    6  H   UNL     1     -41.287 -50.530  10.169  1.00  0.00     0.170 HD
ENDROOT
BRANCH   1   7
HETATM    7  C   UNL     1     -42.141 -52.913  13.098  1.00  0.00     0.111 C 
HETATM    8  C   UNL     1     -41.024 -53.902  13.448  1.00  0.00     0.035 C 
BRANCH   7   9
HETATM    9  C   UNL     1     -43.500 -53.582  12.824  1.00  0.00     0.143 C 
HETATM   10  C   UNL     1     -44.689 -52.628  12.878  1.00  0.00     0.036 C 
HETATM   11  C   UNL     1     -45.819 -53.454  13.453  1.00  0.00     0.029 C 
HETATM   12  C   UNL     1     -45.213 -54.817  13.708  1.00  0.00     0.168 C 
HETATM   13  O   UNL     1     -43.796 -54.619  13.776  1.00  0.00    -0.384 OA
ENDBRANCH   7   9
ENDBRANCH   1   7
BRANCH   4  14
HETATM   14  C   UNL     1     -41.311 -48.607  10.923  1.00  0.00     0.058 A 
HETATM   15  C   UNL     1     -42.315 -47.902  10.364  1.00  0.00     0.123 A 
HETATM   16  N   UNL     1     -42.270 -46.534  10.178  1.00  0.00    -0.327 N 
HETATM   17  C   UNL     1     -43.330 -45.881   9.431  1.00  0.00     0.159 C 
HETATM   18  C   UNL     1     -41.177 -45.775  10.564  1.00  0.00     0.247 A 
HETATM   19  O   UNL     1     -41.056 -44.569  10.379  1.00  0.00    -0.268 OA
HETATM   20  C   UNL     1     -40.088 -46.525  11.241  1.00  0.00     0.083 A 
HETATM   21  C   UNL     1     -40.145 -47.861  11.414  1.00  0.00    -0.029 A 
HETATM   22  C   UNL     1     -38.989 -48.571  12.057  1.00  0.00     0.050 C 
ENDBRANCH   4  14
TORSDOF 3
ENDMDL
MODEL 3
REMARK VINA RESULT:      -6.2      2.287      3.090
REMARK  3 active torsions:
REMARK  status: ('A' for Active; 'I' for Inactive)
REMARK    1  A    between atoms: C_2  and  N_3 
REMARK    2  A    between atoms: C_2  and  C_16 
REMARK       I    between atoms: N_3  and  C_4 
REMARK       I    between atoms: C_4  and  N_6 
REMARK    3  A    between atoms: N_6  and  C_7 
ROOT
HETATM    1  N   UNL     1     -41.929 -49.470  11.305  1.00  0.00    -0.336 N 
HETATM    2  C   UNL     1     -42.344 -50.366  12.263  1.00  0.00     0.321 C 
HETATM    3  O   UNL     1     -42.814 -49.973  13.328  1.00  0.00    -0.247 OA
HETATM    4  N   UNL     1     -42.112 -51.685  11.931  1.00  0.00    -0.307 N 
HETATM    5  H   UNL     1     -41.947 -49.765  10.339  1.00  0.00     0.164 HD
HETATM    6  H   UNL     1     -41.466 -51.825  11.170  1.00  0.00     0.170 HD
ENDROOT
BRANCH   1   7
HETATM    7  C   UNL     1     -42.143 -48.032  11.548  1.00  0.00     0.111 C 
HETATM    8  C   UNL     1     -43.419 -47.566  10.842  1.00  0.00     0.035 C 
BRANCH   7   9
HETATM    9  C   UNL     1     -40.894 -47.209  11.182  1.00  0.00     0.143 C 
HETATM   10  C   UNL     1     -40.167 -46.608  12.381  1.00  0.00     0.036 C 
HETATM   11  C   UNL     1     -39.642 -45.278  11.885  1.00  0.00     0.029 C 
HETATM   12  C   UNL     1     -40.107 -45.189  10.447  1.00  0.00     0.168 C 
HETATM   13  O   UNL     1     -41.208 -46.098  10.326  1.00  0.00    -0.384 OA
ENDBRANCH   7   9
ENDBRANCH   1   7
BRANCH   4  14
HETATM   14  C   UNL     1     -42.411 -52.771  12.744  1.00  0.00     0.058 A 
HETATM   15  C   UNL     1     -43.637 -53.331  12.781  1.00  0.00     0.123 A 
HETATM   16  N   UNL     1     -43.978 -54.354  13.646  1.00  0.00    -0.327 N 
HETATM   17  C   UNL     1     -45.360 -54.791  13.723  1.00  0.00     0.159 C 
HETATM   18  C   UNL     1     -43.070 -54.891  14.544  1.00  0.00     0.247 A 
HETATM   19  O   UNL     1     -43.326 -55.761  15.370  1.00  0.00    -0.268 OA
HETATM   20  C   UNL     1     -41.696 -54.331  14.472  1.00  0.00     0.083 A 
HETATM   21  C   UNL     1     -41.378 -53.332  13.625  1.00  0.00    -0.029 A 
HETATM   22  C   UNL     1     -39.985 -52.771  13.636  1.00  0.00     0.050 C 
ENDBRANCH   4  14
TORSDOF 3
ENDMDL
MODEL 4
REMARK VINA RESULT:      -6.0      3.021      4.709
REMARK  3 active torsions:
REMARK  status: ('A' for Active; 'I' for Inactive)
REMARK    1  A    between atoms: C_2  and  N_3 
REMARK    2  A    between atoms: C_2  and  C_16 
REMARK       I    between atoms: N_3  and  C_4 
REMARK       I    between atoms: C_4  and  N_6 
REMARK    3  A    between atoms: N_6  and  C_7 
ROOT
HETATM    1  N   UNL     1     -41.352 -49.855  11.495  1.00  0.00    -0.336 N 
HETATM    2  C   UNL     1     -42.120 -50.498  12.437  1.00  0.00     0.321 C 
HETATM    3  O   UNL     1     -42.297 -50.003  13.548  1.00  0.00    -0.247 OA
HETATM    4  N   UNL     1     -42.581 -51.734  12.031  1.00  0.00    -0.307 N 
HETATM    5  H   UNL     1     -41.548 -50.033  10.519  1.00  0.00     0.164 HD
HETATM    6  H   UNL     1     -42.117 -52.117  11.223  1.00  0.00     0.170 HD
ENDROOT
BRANCH   1   7
HETATM    7  C   UNL     1     -40.819 -48.519  11.816  1.00  0.00     0.111 C 
HETATM    8  C   UNL     1     -41.156 -47.536  10.690  1.00  0.00     0.035 C 
BRANCH   7   9
HETATM    9  C   UNL     1     -39.320 -48.580  12.159  1.00  0.00     0.143 C 
HETATM   10  C   UNL     1     -38.579 -49.750  11.518  1.00  0.00     0.036 C 
HETATM   11  C   UNL     1     -37.542 -50.156  12.543  1.00  0.00     0.029 C 
HETATM   12  C   UNL     1     -37.756 -49.213  13.707  1.00  0.00     0.168 C 
HETATM   13  O   UNL     1     -39.090 -48.708  13.572  1.00  0.00    -0.384 OA
ENDBRANCH   7   9
ENDBRANCH   1   7
BRANCH   4  14
HETATM   14  C   UNL     1     -43.348 -52.589  12.812  1.00  0.00     0.058 A 
HETATM   15  C   UNL     1     -44.646 -52.349  13.090  1.00  0.00     0.123 A 
HETATM   16  N   UNL     1     -45.400 -53.140  13.935  1.00  0.00    -0.327 N 
HETATM   17  C   UNL     1     -46.743 -52.719  14.295  1.00  0.00     0.159 C 
HETATM   18  C   UNL     1     -44.874 -54.257  14.562  1.00  0.00     0.247 A 
HETATM   19  O   UNL     1     -45.476 -54.966  15.362  1.00  0.00    -0.268 OA
HETATM   20  C   UNL     1     -43.464 -54.575  14.218  1.00  0.00     0.083 A 
HETATM   21  C   UNL     1     -42.739 -53.794  13.393  1.00  0.00    -0.029 A 
HETATM   22  C   UNL     1     -41.302 -54.137  13.124  1.00  0.00     0.050 C 
ENDBRANCH   4  14
TORSDOF 3
ENDMDL
MODEL 5
REMARK VINA RESULT:      -5.9      1.608      7.189
REMARK  3 active torsions:
REMARK  status: ('A' for Active; 'I' for Inactive)
REMARK    1  A    between atoms: C_2  and  N_3 
REMARK    2  A    between atoms: C_2  and  C_16 
REMARK       I    between atoms: N_3  and  C_4 
REMARK       I    between atoms: C_4  and  N_6 
REMARK    3  A    between atoms: N_6  and  C_7 
ROOT
HETATM    1  N   UNL     1     -39.362 -50.048  12.420  1.00  0.00    -0.336 N 
HETATM    2  C   UNL     1     -40.423 -49.194  12.229  1.00  0.00     0.321 C 
HETATM    3  O   UNL     1     -41.358 -49.167  13.025  1.00  0.00    -0.247 OA
HETATM    4  N   UNL     1     -40.347 -48.464  11.060  1.00  0.00    -0.307 N 
HETATM    5  H   UNL     1     -38.463 -49.784  12.039  1.00  0.00     0.164 HD
HETATM    6  H   UNL     1     -39.680 -48.806  10.387  1.00  0.00     0.170 HD
ENDROOT
BRANCH   1   7
HETATM    7  C   UNL     1     -39.330 -50.866  13.646  1.00  0.00     0.111 C 
HETATM    8  C   UNL     1     -37.954 -50.762  14.310  1.00  0.00     0.035 C 
BRANCH   7   9
HETATM    9  C   UNL     1     -39.777 -52.313  13.367  1.00  0.00     0.143 C 
HETATM   10  C   UNL     1     -41.067 -52.717  14.075  1.00  0.00     0.036 C 
HETATM   11  C   UNL     1     -40.874 -54.178  14.420  1.00  0.00     0.029 C 
HETATM   12  C   UNL     1     -39.492 -54.519  13.906  1.00  0.00     0.168 C 
HETATM   13  O   UNL     1     -38.793 -53.275  13.782  1.00  0.00    -0.384 OA
ENDBRANCH   7   9
ENDBRANCH   1   7
BRANCH   4  14
HETATM   14  C   UNL     1     -41.309 -47.560  10.627  1.00  0.00     0.058 A 
HETATM   15  C   UNL     1     -42.384 -47.936   9.906  1.00  0.00     0.123 A 
HETATM   16  N   UNL     1     -43.303 -47.042   9.392  1.00  0.00    -0.327 N 
HETATM   17  C   UNL     1     -44.343 -47.523   8.501  1.00  0.00     0.159 C 
HETATM   18  C   UNL     1     -43.190 -45.675   9.589  1.00  0.00     0.247 A 
HETATM   19  O   UNL     1     -43.942 -44.830   9.115  1.00  0.00    -0.268 OA
HETATM   20  C   UNL     1     -42.048 -45.246  10.437  1.00  0.00     0.083 A 
HETATM   21  C   UNL     1     -41.157 -46.130  10.930  1.00  0.00    -0.029 A 
HETATM   22  C   UNL     1     -39.992 -45.631  11.736  1.00  0.00     0.050 C 
ENDBRANCH   4  14
TORSDOF 3
ENDMDL
MODEL 6
REMARK VINA RESULT:      -5.8      2.826      7.011
REMARK  3 active torsions:
REMARK  status: ('A' for Active; 'I' for Inactive)
REMARK    1  A    between atoms: C_2  and  N_3 
REMARK    2  A    between atoms: C_2  and  C_16 
REMARK       I    between atoms: N_3  and  C_4 
REMARK       I    between atoms: C_4  and  N_6 
REMARK    3  A    between atoms: N_6  and  C_7 
ROOT
HETATM    1  N   UNL     1     -42.665 -51.133  12.223  1.00  0.00    -0.336 N 
HETATM    2  C   UNL     1     -42.437 -49.780  12.322  1.00  0.00     0.321 C 
HETATM    3  O   UNL     1     -42.461 -49.217  13.414  1.00  0.00    -0.247 OA
HETATM    4  N   UNL     1     -42.261 -49.154  11.105  1.00  0.00    -0.307 N 
HETATM    5  H   UNL     1     -42.249 -51.630  11.448  1.00  0.00     0.164 HD
HETATM    6  H   UNL     1     -42.555 -49.691  10.304  1.00  0.00     0.170 HD
ENDROOT
BRANCH   1   7
HETATM    7  C   UNL     1     -42.850 -51.906  13.464  1.00  0.00     0.111 C 
HETATM    8  C   UNL     1     -41.928 -53.129  13.462  1.00  0.00     0.035 C 
BRANCH   7   9
HETATM    9  C   UNL     1     -44.334 -52.248  13.696  1.00  0.00     0.143 C 
HETATM   10  C   UNL     1     -45.091 -52.639  12.431  1.00  0.00     0.036 C 
HETATM   11  C   UNL     1     -46.488 -52.091  12.633  1.00  0.00     0.029 C 
HETATM   12  C   UNL     1     -46.446 -51.411  13.985  1.00  0.00     0.168 C 
HETATM   13  O   UNL     1     -45.064 -51.142  14.254  1.00  0.00    -0.384 OA
ENDBRANCH   7   9
ENDBRANCH   1   7
BRANCH   4  14
HETATM   14  C   UNL     1     -42.048 -47.792  10.937  1.00  0.00     0.058 A 
HETATM   15  C   UNL     1     -40.923 -47.178  11.354  1.00  0.00     0.123 A 
HETATM   16  N   UNL     1     -40.730 -45.812  11.277  1.00  0.00    -0.327 N 
HETATM   17  C   UNL     1     -39.552 -45.223  11.887  1.00  0.00     0.159 C 
HETATM   18  C   UNL     1     -41.690 -44.963  10.751  1.00  0.00     0.247 A 
HETATM   19  O   UNL     1     -41.599 -43.740  10.704  1.00  0.00    -0.268 OA
HETATM   20  C   UNL     1     -42.911 -45.627  10.227  1.00  0.00     0.083 A 
HETATM   21  C   UNL     1     -43.086 -46.961  10.311  1.00  0.00    -0.029 A 
HETATM   22  C   UNL     1     -44.365 -47.570   9.813  1.00  0.00     0.050 C 
ENDBRANCH   4  14
TORSDOF 3
ENDMDL
MODEL 7
REMARK VINA RESULT:      -5.6      2.457      4.119
REMARK  3 active torsions:
REMARK  status: ('A' for Active; 'I' for Inactive)
REMARK    1  A    between atoms: C_2  and  N_3 
REMARK    2  A    between atoms: C_2  and  C_16 
REMARK       I    between atoms: N_3  and  C_4 
REMARK       I    between atoms: C_4  and  N_6 
REMARK    3  A    between atoms: N_6  and  C_7 
ROOT
HETATM    1  N   UNL     1     -41.538 -50.195  11.411  1.00  0.00    -0.336 N 
HETATM    2  C   UNL     1     -41.890 -50.908  12.533  1.00  0.00     0.321 C 
HETATM    3  O   UNL     1     -42.095 -50.336  13.602  1.00  0.00    -0.247 OA
HETATM    4  N   UNL     1     -41.912 -52.274  12.342  1.00  0.00    -0.307 N 
HETATM    5  H   UNL     1     -41.776 -50.581  10.508  1.00  0.00     0.164 HD
HETATM    6  H   UNL     1     -41.445 -52.595  11.508  1.00  0.00     0.170 HD
ENDROOT
BRANCH   1   7
HETATM    7  C   UNL     1     -41.498 -48.724  11.497  1.00  0.00     0.111 C 
HETATM    8  C   UNL     1     -42.030 -48.109  10.199  1.00  0.00     0.035 C 
BRANCH   7   9
HETATM    9  C   UNL     1     -40.097 -48.223  11.894  1.00  0.00     0.143 C 
HETATM   10  C   UNL     1     -38.992 -49.263  11.731  1.00  0.00     0.036 C 
HETATM   11  C   UNL     1     -38.034 -48.986  12.870  1.00  0.00     0.029 C 
HETATM   12  C   UNL     1     -38.648 -47.824  13.621  1.00  0.00     0.168 C 
HETATM   13  O   UNL     1     -40.037 -47.810  13.270  1.00  0.00    -0.384 OA
ENDBRANCH   7   9
ENDBRANCH   1   7
BRANCH   4  14
HETATM   14  C   UNL     1     -42.206 -53.208  13.327  1.00  0.00     0.058 A 
HETATM   15  C   UNL     1     -41.282 -53.651  14.204  1.00  0.00     0.123 A 
HETATM   16  N   UNL     1     -41.531 -54.643  15.133  1.00  0.00    -0.327 N 
HETATM   17  C   UNL     1     -40.436 -55.161  15.933  1.00  0.00     0.159 C 
HETATM   18  C   UNL     1     -42.768 -55.258  15.238  1.00  0.00     0.247 A 
HETATM   19  O   UNL     1     -43.035 -56.178  16.004  1.00  0.00    -0.268 OA
HETATM   20  C   UNL     1     -43.818 -54.738  14.324  1.00  0.00     0.083 A 
HETATM   21  C   UNL     1     -43.559 -53.772  13.421  1.00  0.00    -0.029 A 
HETATM   22  C   UNL     1     -44.647 -53.325  12.487  1.00  0.00     0.050 C 
ENDBRANCH   4  14
TORSDOF 3
ENDMDL
MODEL 8
REMARK VINA RESULT:      -5.6      3.223      4.537
REMARK  3 active torsions:
REMARK  status: ('A' for Active; 'I' for Inactive)
REMARK    1  A    between atoms: C_2  and  N_3 
REMARK    2  A    between atoms: C_2  and  C_16 
REMARK       I    between atoms: N_3  and  C_4 
REMARK       I    between atoms: C_4  and  N_6 
REMARK    3  A    between atoms: N_6  and  C_7 
ROOT
HETATM    1  N   UNL     1     -42.983 -48.651  11.950  1.00  0.00    -0.336 N 
HETATM    2  C   UNL     1     -42.900 -49.967  12.340  1.00  0.00     0.321 C 
HETATM    3  O   UNL     1     -41.897 -50.632  12.096  1.00  0.00    -0.247 OA
HETATM    4  N   UNL     1     -44.048 -50.443  12.942  1.00  0.00    -0.307 N 
HETATM    5  H   UNL     1     -43.575 -48.031  12.488  1.00  0.00     0.164 HD
HETATM    6  H   UNL     1     -44.867 -49.873  12.807  1.00  0.00     0.170 HD
ENDROOT
BRANCH   1   7
HETATM    7  C   UNL     1     -41.808 -48.032  11.311  1.00  0.00     0.111 C 
HETATM    8  C   UNL     1     -41.066 -47.151  12.320  1.00  0.00     0.035 C 
BRANCH   7   9
HETATM    9  C   UNL     1     -42.196 -47.299  10.014  1.00  0.00     0.143 C 
HETATM   10  C   UNL     1     -42.704 -45.876  10.227  1.00  0.00     0.036 C 
HETATM   11  C   UNL     1     -43.764 -45.683   9.164  1.00  0.00     0.029 C 
HETATM   12  C   UNL     1     -43.811 -47.000   8.419  1.00  0.00     0.168 C 
HETATM   13  O   UNL     1     -43.242 -47.978   9.299  1.00  0.00    -0.384 OA
ENDBRANCH   7   9
ENDBRANCH   1   7
BRANCH   4  14
HETATM   14  C   UNL     1     -44.224 -51.745  13.393  1.00  0.00     0.058 A 
HETATM   15  C   UNL     1     -43.276 -52.404  14.090  1.00  0.00     0.123 A 
HETATM   16  N   UNL     1     -43.396 -53.727  14.471  1.00  0.00    -0.327 N 
HETATM   17  C   UNL     1     -42.264 -54.398  15.084  1.00  0.00     0.159 C 
HETATM   18  C   UNL     1     -44.519 -54.481  14.168  1.00  0.00     0.247 A 
HETATM   19  O   UNL     1     -44.661 -55.670  14.431  1.00  0.00    -0.268 OA
HETATM   20  C   UNL     1     -45.602 -53.753  13.457  1.00  0.00     0.083 A 
HETATM   21  C   UNL     1     -45.469 -52.463  13.090  1.00  0.00    -0.029 A 
HETATM   22  C   UNL     1     -46.577 -51.796  12.327  1.00  0.00     0.050 C 
ENDBRANCH   4  14
TORSDOF 3
ENDMDL
MODEL 9
REMARK VINA RESULT:      -5.5      3.523      4.991
REMARK  3 active torsions:
REMARK  status: ('A' for Active; 'I' for Inactive)
REMARK    1  A    between atoms: C_2  and  N_3 
REMARK    2  A    between atoms: C_2  and  C_16 
REMARK       I    between atoms: N_3  and  C_4 
REMARK       I    between atoms: C_4  and  N_6 
REMARK    3  A    between atoms: N_6  and  C_7 
ROOT
HETATM    1  N   UNL     1     -42.368 -49.817  11.659  1.00  0.00    -0.336 N 
HETATM    2  C   UNL     1     -42.996 -50.274  12.794  1.00  0.00     0.321 C 
HETATM    3  O   UNL     1     -43.053 -49.577  13.804  1.00  0.00    -0.247 OA
HETATM    4  N   UNL     1     -43.464 -51.568  12.688  1.00  0.00    -0.307 N 
HETATM    5  H   UNL     1     -42.674 -50.179  10.766  1.00  0.00     0.164 HD
HETATM    6  H   UNL     1     -43.089 -52.095  11.915  1.00  0.00     0.170 HD
ENDROOT
BRANCH   1   7
HETATM    7  C   UNL     1     -41.842 -48.439  11.654  1.00  0.00     0.111 C 
HETATM    8  C   UNL     1     -42.343 -47.693  10.414  1.00  0.00     0.035 C 
BRANCH   7   9
HETATM    9  C   UNL     1     -40.311 -48.422  11.813  1.00  0.00     0.143 C 
HETATM   10  C   UNL     1     -39.627 -49.729  11.421  1.00  0.00     0.036 C 
HETATM   11  C   UNL     1     -38.464 -49.857  12.382  1.00  0.00     0.029 C 
HETATM   12  C   UNL     1     -38.557 -48.634  13.269  1.00  0.00     0.168 C 
HETATM   13  O   UNL     1     -39.909 -48.170  13.170  1.00  0.00    -0.384 OA
ENDBRANCH   7   9
ENDBRANCH   1   7
BRANCH   4  14
HETATM   14  C   UNL     1     -44.104 -52.264  13.705  1.00  0.00     0.058 A 
HETATM   15  C   UNL     1     -43.429 -52.936  14.660  1.00  0.00     0.123 A 
HETATM   16  N   UNL     1     -44.046 -53.706  15.627  1.00  0.00    -0.327 N 
HETATM   17  C   UNL     1     -43.234 -54.514  16.520  1.00  0.00     0.159 C 
HETATM   18  C   UNL     1     -45.423 -53.840  15.692  1.00  0.00     0.247 A 
HETATM   19  O   UNL     1     -46.025 -54.549  16.492  1.00  0.00    -0.268 OA
HETATM   20  C   UNL     1     -46.188 -53.056  14.688  1.00  0.00     0.083 A 
HETATM   21  C   UNL     1     -45.572 -52.310  13.749  1.00  0.00    -0.029 A 
HETATM   22  C   UNL     1     -46.397 -51.582  12.728  1.00  0.00     0.050 C 
ENDBRANCH   4  14
TORSDOF 3
ENDMDL
