MODEL 1
REMARK VINA RESULT:      -5.8      0.000      0.000
REMARK  5 active torsions:
REMARK  status: ('A' for Active; 'I' for Inactive)
REMARK       I    between atoms: N_1  and  C_2 
REMARK    1  A    between atoms: C_2  and  C_4 
REMARK    2  A    between atoms: C_4  and  N_5 
REMARK       I    between atoms: N_5  and  C_6 
REMARK    3  A    between atoms: C_6  and  C_8 
REMARK    4  A    between atoms: C_8  and  N_9 
REMARK    5  A    between atoms: C_13  and  C_16 
ROOT
HETATM    1  N   UNL     1     -41.935 -53.490  13.195  1.00  0.00    -0.315 N 
HETATM    2  C   UNL     1     -41.191 -54.000  14.243  1.00  0.00     0.095 C 
HETATM    3  C   UNL     1     -41.767 -54.719  15.214  1.00  0.00     0.018 C 
HETATM    4  C   UNL     1     -43.194 -54.903  15.210  1.00  0.00     0.023 C 
HETATM    5  C   UNL     1     -43.958 -54.449  14.201  1.00  0.00     0.115 C 
HETATM    6  C   UNL     1     -43.301 -53.764  13.062  1.00  0.00     0.263 C 
HETATM    7  O   UNL     1     -43.957 -53.477  12.066  1.00  0.00    -0.267 OA
ENDROOT
BRANCH   1   8
HETATM    8  C   UNL     1     -41.243 -52.671  12.188  1.00  0.00     0.234 C 
BRANCH   8   9
HETATM    9  C   UNL     1     -41.320 -51.173  12.538  1.00  0.00     0.236 C 
HETATM   10  N   UNL     1     -40.225 -50.533  13.053  1.00  0.00    -0.351 N 
HETATM   11  H   UNL     1     -40.361 -49.547  13.249  1.00  0.00     0.163 HD
HETATM   12  O   UNL     1     -42.337 -50.517  12.298  1.00  0.00    -0.272 OA
BRANCH  10  13
HETATM   13  C   UNL     1     -38.908 -51.088  13.282  1.00  0.00     0.225 C 
BRANCH  13  14
HETATM   14  C   UNL     1     -37.896 -50.941  12.159  1.00  0.00     0.233 C 
HETATM   15  N   UNL     1     -38.284 -50.029  11.209  1.00  0.00    -0.369 N 
HETATM   16  H   UNL     1     -37.714 -49.926  10.381  1.00  0.00     0.159 HD
HETATM   17  H   UNL     1     -39.184 -49.562  11.241  1.00  0.00     0.159 HD
HETATM   18  O   UNL     1     -36.842 -51.556  12.078  1.00  0.00    -0.272 OA
ENDBRANCH  13  14
ENDBRANCH  10  13
ENDBRANCH   8   9
ENDBRANCH   1   8
BRANCH   5  19
HETATM   19  C   UNL     1     -45.438 -54.598  14.162  1.00  0.00     0.422 C 
HETATM   20  F   UNL     1     -46.133 -53.607  13.551  1.00  0.00    -0.166 F 
HETATM   21  F   UNL     1     -45.792 -55.756  13.540  1.00  0.00    -0.166 F 
HETATM   22  F   UNL     1     -45.951 -54.681  15.423  1.00  0.00    -0.166 F 
ENDBRANCH   5  19
TORSDOF 5
ENDMDL
MODEL 2
REMARK VINA RESULT:      -5.7      2.297      3.119
REMARK  5 active torsions:
REMARK  status: ('A' for Active; 'I' for Inactive)
REMARK       I    between atoms: N_1  and  C_2 
REMARK    1  A    between atoms: C_2  and  C_4 
REMARK    2  A    between atoms: C_4  and  N_5 
REMARK       I    between atoms: N_5  and  C_6 
REMARK    3  A    between atoms: C_6  and  C_8 
REMARK    4  A    between atoms: C_8  and  N_9 
REMARK    5  A    between atoms: C_13  and  C_16 
ROOT
HETATM    1  N   UNL     1     -42.704 -52.460  13.867  1.00  0.00    -0.315 N 
HETATM    2  C   UNL     1     -42.603 -53.812  14.142  1.00  0.00     0.095 C 
HETATM    3  C   UNL     1     -43.689 -54.543  14.422  1.00  0.00     0.018 C 
HETATM    4  C   UNL     1     -44.974 -53.901  14.510  1.00  0.00     0.023 C 
HETATM    5  C   UNL     1     -45.129 -52.596  14.227  1.00  0.00     0.115 C 
HETATM    6  C   UNL     1     -43.945 -51.815  13.793  1.00  0.00     0.263 C 
HETATM    7  O   UNL     1     -44.090 -50.667  13.388  1.00  0.00    -0.267 OA
ENDROOT
BRANCH   1   8
HETATM    8  C   UNL     1     -41.464 -51.710  13.614  1.00  0.00     0.234 C 
BRANCH   8   9
HETATM    9  C   UNL     1     -40.963 -51.929  12.175  1.00  0.00     0.236 C 
HETATM   10  N   UNL     1     -40.673 -50.854  11.378  1.00  0.00    -0.351 N 
HETATM   11  H   UNL     1     -40.343 -51.088  10.448  1.00  0.00     0.163 HD
HETATM   12  O   UNL     1     -40.751 -53.065  11.743  1.00  0.00    -0.272 OA
BRANCH  10  13
HETATM   13  C   UNL     1     -40.725 -49.453  11.739  1.00  0.00     0.225 C 
BRANCH  13  14
HETATM   14  C   UNL     1     -41.762 -48.599  11.031  1.00  0.00     0.233 C 
HETATM   15  N   UNL     1     -43.051 -48.963  11.335  1.00  0.00    -0.369 N 
HETATM   16  H   UNL     1     -43.807 -48.506  10.846  1.00  0.00     0.159 HD
HETATM   17  H   UNL     1     -43.263 -49.761  11.924  1.00  0.00     0.159 HD
HETATM   18  O   UNL     1     -41.510 -47.682  10.262  1.00  0.00    -0.272 OA
ENDBRANCH  13  14
ENDBRANCH  10  13
ENDBRANCH   8   9
ENDBRANCH   1   8
BRANCH   5  19
HETATM   19  C   UNL     1     -46.431 -51.884  14.324  1.00  0.00     0.422 C 
HETATM   20  F   UNL     1     -46.879 -51.277  13.196  1.00  0.00    -0.166 F 
HETATM   21  F   UNL     1     -47.420 -52.734  14.719  1.00  0.00    -0.166 F 
HETATM   22  F   UNL     1     -46.381 -50.906  15.272  1.00  0.00    -0.166 F 
ENDBRANCH   5  19
TORSDOF 5
ENDMDL
MODEL 3
REMARK VINA RESULT:      -5.7      1.783      2.183
REMARK  5 active torsions:
REMARK  status: ('A' for Active; 'I' for Inactive)
REMARK       I    between atoms: N_1  and  C_2 
REMARK    1  A    between atoms: C_2  and  C_4 
REMARK    2  A    between atoms: C_4  and  N_5 
REMARK       I    between atoms: N_5  and  C_6 
REMARK    3  A    between atoms: C_6  and  C_8 
REMARK    4  A    between atoms: C_8  and  N_9 
REMARK    5  A    between atoms: C_13  and  C_16 
ROOT
HETATM    1  N   UNL     1     -41.505 -51.202  13.011  1.00  0.00    -0.315 N 
HETATM    2  C   UNL     1     -40.512 -52.153  12.857  1.00  0.00     0.095 C 
HETATM    3  C   UNL     1     -40.810 -53.455  12.768  1.00  0.00     0.018 C 
HETATM    4  C   UNL     1     -42.177 -53.882  12.906  1.00  0.00     0.023 C 
HETATM    5  C   UNL     1     -43.181 -52.996  13.033  1.00  0.00     0.115 C 
HETATM    6  C   UNL     1     -42.862 -51.548  13.003  1.00  0.00     0.263 C 
HETATM    7  O   UNL     1     -43.772 -50.727  12.966  1.00  0.00    -0.267 OA
ENDROOT
BRANCH   1   8
HETATM    8  C   UNL     1     -41.102 -49.795  13.149  1.00  0.00     0.234 C 
BRANCH   8   9
HETATM    9  C   UNL     1     -40.822 -49.156  11.776  1.00  0.00     0.236 C 
HETATM   10  N   UNL     1     -39.533 -48.931  11.374  1.00  0.00    -0.351 N 
HETATM   11  H   UNL     1     -39.440 -48.513  10.454  1.00  0.00     0.163 HD
HETATM   12  O   UNL     1     -41.743 -48.903  10.995  1.00  0.00    -0.272 OA
BRANCH  10  13
HETATM   13  C   UNL     1     -38.318 -49.278  12.081  1.00  0.00     0.225 C 
BRANCH  13  14
HETATM   14  C   UNL     1     -37.457 -50.370  11.472  1.00  0.00     0.233 C 
HETATM   15  N   UNL     1     -37.147 -50.133  10.156  1.00  0.00    -0.369 N 
HETATM   16  H   UNL     1     -36.649 -50.847   9.643  1.00  0.00     0.159 HD
HETATM   17  H   UNL     1     -37.518 -49.338   9.647  1.00  0.00     0.159 HD
HETATM   18  O   UNL     1     -37.068 -51.368  12.062  1.00  0.00    -0.272 OA
ENDBRANCH  13  14
ENDBRANCH  10  13
ENDBRANCH   8   9
ENDBRANCH   1   8
BRANCH   5  19
HETATM   19  C   UNL     1     -44.606 -53.390  13.200  1.00  0.00     0.422 C 
HETATM   20  F   UNL     1     -45.477 -52.933  12.266  1.00  0.00    -0.166 F 
HETATM   21  F   UNL     1     -44.736 -54.745  13.215  1.00  0.00    -0.166 F 
HETATM   22  F   UNL     1     -45.092 -52.956  14.397  1.00  0.00    -0.166 F 
ENDBRANCH   5  19
TORSDOF 5
ENDMDL
MODEL 4
REMARK VINA RESULT:      -5.6      1.987      3.319
REMARK  5 active torsions:
REMARK  status: ('A' for Active; 'I' for Inactive)
REMARK       I    between atoms: N_1  and  C_2 
REMARK    1  A    between atoms: C_2  and  C_4 
REMARK    2  A    between atoms: C_4  and  N_5 
REMARK       I    between atoms: N_5  and  C_6 
REMARK    3  A    between atoms: C_6  and  C_8 
REMARK    4  A    between atoms: C_8  and  N_9 
REMARK    5  A    between atoms: C_13  and  C_16 
ROOT
HETATM    1  N   UNL     1     -39.504 -52.230  13.857  1.00  0.00    -0.315 N 
HETATM    2  C   UNL     1     -38.909 -53.420  14.235  1.00  0.00     0.095 C 
HETATM    3  C   UNL     1     -39.604 -54.563  14.262  1.00  0.00     0.018 C 
HETATM    4  C   UNL     1     -41.012 -54.545  13.963  1.00  0.00     0.023 C 
HETATM    5  C   UNL     1     -41.632 -53.420  13.566  1.00  0.00     0.115 C 
HETATM    6  C   UNL     1     -40.831 -52.180  13.415  1.00  0.00     0.263 C 
HETATM    7  O   UNL     1     -41.342 -51.185  12.912  1.00  0.00    -0.267 OA
ENDROOT
BRANCH   1   8
HETATM    8  C   UNL     1     -38.691 -51.005  13.896  1.00  0.00     0.234 C 
BRANCH   8   9
HETATM    9  C   UNL     1     -37.877 -50.833  12.600  1.00  0.00     0.236 C 
HETATM   10  N   UNL     1     -38.142 -49.788  11.757  1.00  0.00    -0.351 N 
HETATM   11  H   UNL     1     -37.556 -49.747  10.931  1.00  0.00     0.163 HD
HETATM   12  O   UNL     1     -36.937 -51.589  12.337  1.00  0.00    -0.272 OA
BRANCH  10  13
HETATM   13  C   UNL     1     -39.105 -48.724  11.952  1.00  0.00     0.225 C 
BRANCH  13  14
HETATM   14  C   UNL     1     -40.308 -48.710  11.026  1.00  0.00     0.233 C 
HETATM   15  N   UNL     1     -40.479 -49.895  10.355  1.00  0.00    -0.369 N 
HETATM   16  H   UNL     1     -41.204 -49.951   9.653  1.00  0.00     0.159 HD
HETATM   17  H   UNL     1     -39.822 -50.664  10.437  1.00  0.00     0.159 HD
HETATM   18  O   UNL     1     -41.062 -47.759  10.868  1.00  0.00    -0.272 OA
ENDBRANCH  13  14
ENDBRANCH  10  13
ENDBRANCH   8   9
ENDBRANCH   1   8
BRANCH   5  19
HETATM   19  C   UNL     1     -43.087 -53.346  13.267  1.00  0.00     0.422 C 
HETATM   20  F   UNL     1     -43.431 -52.979  12.007  1.00  0.00    -0.166 F 
HETATM   21  F   UNL     1     -43.690 -54.546  13.495  1.00  0.00    -0.166 F 
HETATM   22  F   UNL     1     -43.708 -52.456  14.091  1.00  0.00    -0.166 F 
ENDBRANCH   5  19
TORSDOF 5
ENDMDL
MODEL 5
REMARK VINA RESULT:      -5.6      1.873      2.270
REMARK  5 active torsions:
REMARK  status: ('A' for Active; 'I' for Inactive)
REMARK       I    between atoms: N_1  and  C_2 
REMARK    1  A    between atoms: C_2  and  C_4 
REMARK    2  A    between atoms: C_4  and  N_5 
REMARK       I    between atoms: N_5  and  C_6 
REMARK    3  A    between atoms: C_6  and  C_8 
REMARK    4  A    between atoms: C_8  and  N_9 
REMARK    5  A    between atoms: C_13  and  C_16 
ROOT
HETATM    1  N   UNL     1     -42.871 -52.627  14.113  1.00  0.00    -0.315 N 
HETATM    2  C   UNL     1     -42.868 -53.988  14.360  1.00  0.00     0.095 C 
HETATM    3  C   UNL     1     -43.993 -54.634  14.687  1.00  0.00     0.018 C 
HETATM    4  C   UNL     1     -45.214 -53.892  14.858  1.00  0.00     0.023 C 
HETATM    5  C   UNL     1     -45.276 -52.572  14.606  1.00  0.00     0.115 C 
HETATM    6  C   UNL     1     -44.057 -51.882  14.119  1.00  0.00     0.263 C 
HETATM    7  O   UNL     1     -44.129 -50.718  13.741  1.00  0.00    -0.267 OA
ENDROOT
BRANCH   1   8
HETATM    8  C   UNL     1     -41.590 -51.975  13.803  1.00  0.00     0.234 C 
BRANCH   8   9
HETATM    9  C   UNL     1     -41.309 -51.986  12.289  1.00  0.00     0.236 C 
HETATM   10  N   UNL     1     -40.185 -51.380  11.795  1.00  0.00    -0.351 N 
HETATM   11  H   UNL     1     -40.075 -51.440  10.789  1.00  0.00     0.163 HD
HETATM   12  O   UNL     1     -42.049 -52.594  11.511  1.00  0.00    -0.272 OA
BRANCH  10  13
HETATM   13  C   UNL     1     -39.131 -50.735  12.549  1.00  0.00     0.225 C 
BRANCH  13  14
HETATM   14  C   UNL     1     -37.733 -50.785  11.958  1.00  0.00     0.233 C 
HETATM   15  N   UNL     1     -37.582 -49.953  10.876  1.00  0.00    -0.369 N 
HETATM   16  H   UNL     1     -36.711 -49.983  10.365  1.00  0.00     0.159 HD
HETATM   17  H   UNL     1     -38.354 -49.418  10.492  1.00  0.00     0.159 HD
HETATM   18  O   UNL     1     -36.819 -51.484  12.374  1.00  0.00    -0.272 OA
ENDBRANCH  13  14
ENDBRANCH  10  13
ENDBRANCH   8   9
ENDBRANCH   1   8
BRANCH   5  19
HETATM   19  C   UNL     1     -46.508 -51.760  14.787  1.00  0.00     0.422 C 
HETATM   20  F   UNL     1     -46.984 -51.122  13.688  1.00  0.00    -0.166 F 
HETATM   21  F   UNL     1     -47.530 -52.527  15.258  1.00  0.00    -0.166 F 
HETATM   22  F   UNL     1     -46.315 -50.785  15.720  1.00  0.00    -0.166 F 
ENDBRANCH   5  19
TORSDOF 5
ENDMDL
MODEL 6
REMARK VINA RESULT:      -5.6      5.701      7.536
REMARK  5 active torsions:
REMARK  status: ('A' for Active; 'I' for Inactive)
REMARK       I    between atoms: N_1  and  C_2 
REMARK    1  A    between atoms: C_2  and  C_4 
REMARK    2  A    between atoms: C_4  and  N_5 
REMARK       I    between atoms: N_5  and  C_6 
REMARK    3  A    between atoms: C_6  and  C_8 
REMARK    4  A    between atoms: C_8  and  N_9 
REMARK    5  A    between atoms: C_13  and  C_16 
ROOT
HETATM    1  N   UNL     1     -41.377 -47.902  11.909  1.00  0.00    -0.315 N 
HETATM    2  C   UNL     1     -42.266 -48.961  11.927  1.00  0.00     0.095 C 
HETATM    3  C   UNL     1     -41.836 -50.223  12.040  1.00  0.00     0.018 C 
HETATM    4  C   UNL     1     -40.423 -50.492  12.069  1.00  0.00     0.023 C 
HETATM    5  C   UNL     1     -39.518 -49.498  12.079  1.00  0.00     0.115 C 
HETATM    6  C   UNL     1     -40.001 -48.095  12.084  1.00  0.00     0.263 C 
HETATM    7  O   UNL     1     -39.202 -47.179  12.244  1.00  0.00    -0.267 OA
ENDROOT
BRANCH   1   8
HETATM    8  C   UNL     1     -41.917 -46.545  11.736  1.00  0.00     0.234 C 
BRANCH   8   9
HETATM    9  C   UNL     1     -41.637 -46.009  10.321  1.00  0.00     0.236 C 
HETATM   10  N   UNL     1     -42.485 -46.314   9.291  1.00  0.00    -0.351 N 
HETATM   11  H   UNL     1     -42.229 -45.914   8.394  1.00  0.00     0.163 HD
HETATM   12  O   UNL     1     -40.690 -45.247  10.107  1.00  0.00    -0.272 OA
BRANCH  10  13
HETATM   13  C   UNL     1     -43.715 -47.075   9.361  1.00  0.00     0.225 C 
BRANCH  13  14
HETATM   14  C   UNL     1     -44.112 -47.855   8.121  1.00  0.00     0.233 C 
HETATM   15  N   UNL     1     -45.441 -48.200   8.110  1.00  0.00    -0.369 N 
HETATM   16  H   UNL     1     -45.778 -48.793   7.366  1.00  0.00     0.159 HD
HETATM   17  H   UNL     1     -46.059 -47.998   8.889  1.00  0.00     0.159 HD
HETATM   18  O   UNL     1     -43.353 -48.164   7.213  1.00  0.00    -0.272 OA
ENDBRANCH  13  14
ENDBRANCH  10  13
ENDBRANCH   8   9
ENDBRANCH   1   8
BRANCH   5  19
HETATM   19  C   UNL     1     -38.048 -49.726  12.089  1.00  0.00     0.422 C 
HETATM   20  F   UNL     1     -37.363 -49.322  10.990  1.00  0.00    -0.166 F 
HETATM   21  F   UNL     1     -37.468 -49.104  13.153  1.00  0.00    -0.166 F 
HETATM   22  F   UNL     1     -37.763 -51.051  12.232  1.00  0.00    -0.166 F 
ENDBRANCH   5  19
TORSDOF 5
ENDMDL
MODEL 7
REMARK VINA RESULT:      -5.4      2.125      2.868
REMARK  5 active torsions:
REMARK  status: ('A' for Active; 'I' for Inactive)
REMARK       I    between atoms: N_1  and  C_2 
REMARK    1  A    between atoms: C_2  and  C_4 
REMARK    2  A    between atoms: C_4  and  N_5 
REMARK       I    between atoms: N_5  and  C_6 
REMARK    3  A    between atoms: C_6  and  C_8 
REMARK    4  A    between atoms: C_8  and  N_9 
REMARK    5  A    between atoms: C_13  and  C_16 
ROOT
HETATM    1  N   UNL     1     -42.885 -52.217  14.154  1.00  0.00    -0.315 N 
HETATM    2  C   UNL     1     -43.355 -51.030  13.621  1.00  0.00     0.095 C 
HETATM    3  C   UNL     1     -44.667 -50.805  13.484  1.00  0.00     0.018 C 
HETATM    4  C   UNL     1     -45.605 -51.841  13.827  1.00  0.00     0.023 C 
HETATM    5  C   UNL     1     -45.201 -53.003  14.372  1.00  0.00     0.115 C 
HETATM    6  C   UNL     1     -43.756 -53.199  14.641  1.00  0.00     0.263 C 
HETATM    7  O   UNL     1     -43.385 -54.183  15.271  1.00  0.00    -0.267 OA
ENDROOT
BRANCH   1   8
HETATM    8  C   UNL     1     -41.430 -52.415  14.232  1.00  0.00     0.234 C 
BRANCH   8   9
HETATM    9  C   UNL     1     -40.850 -52.840  12.870  1.00  0.00     0.236 C 
HETATM   10  N   UNL     1     -40.110 -51.955  12.133  1.00  0.00    -0.351 N 
HETATM   11  H   UNL     1     -39.762 -52.319  11.253  1.00  0.00     0.163 HD
HETATM   12  O   UNL     1     -40.984 -53.995  12.457  1.00  0.00    -0.272 OA
BRANCH  10  13
HETATM   13  C   UNL     1     -39.728 -50.608  12.501  1.00  0.00     0.225 C 
BRANCH  13  14
HETATM   14  C   UNL     1     -40.085 -49.501  11.524  1.00  0.00     0.233 C 
HETATM   15  N   UNL     1     -40.499 -49.980  10.306  1.00  0.00    -0.369 N 
HETATM   16  H   UNL     1     -40.676 -49.317   9.564  1.00  0.00     0.159 HD
HETATM   17  H   UNL     1     -40.499 -50.969  10.083  1.00  0.00     0.159 HD
HETATM   18  O   UNL     1     -40.017 -48.304  11.764  1.00  0.00    -0.272 OA
ENDBRANCH  13  14
ENDBRANCH  10  13
ENDBRANCH   8   9
ENDBRANCH   1   8
BRANCH   5  19
HETATM   19  C   UNL     1     -46.130 -54.110  14.723  1.00  0.00     0.422 C 
HETATM   20  F   UNL     1     -46.100 -54.544  16.008  1.00  0.00    -0.166 F 
HETATM   21  F   UNL     1     -47.421 -53.761  14.466  1.00  0.00    -0.166 F 
HETATM   22  F   UNL     1     -45.884 -55.212  13.959  1.00  0.00    -0.166 F 
ENDBRANCH   5  19
TORSDOF 5
ENDMDL
MODEL 8
REMARK VINA RESULT:      -5.3      4.408      7.110
REMARK  5 active torsions:
REMARK  status: ('A' for Active; 'I' for Inactive)
REMARK       I    between atoms: N_1  and  C_2 
REMARK    1  A    between atoms: C_2  and  C_4 
REMARK    2  A    between atoms: C_4  and  N_5 
REMARK       I    between atoms: N_5  and  C_6 
REMARK    3  A    between atoms: C_6  and  C_8 
REMARK    4  A    between atoms: C_8  and  N_9 
REMARK    5  A    between atoms: C_13  and  C_16 
ROOT
HETATM    1  N   UNL     1     -40.943 -51.695  13.256  1.00  0.00    -0.315 N 
HETATM    2  C   UNL     1     -41.809 -50.913  12.513  1.00  0.00     0.095 C 
HETATM    3  C   UNL     1     -41.348 -49.996  11.655  1.00  0.00     0.018 C 
HETATM    4  C   UNL     1     -39.931 -49.766  11.555  1.00  0.00     0.023 C 
HETATM    5  C   UNL     1     -39.047 -50.515  12.237  1.00  0.00     0.115 C 
HETATM    6  C   UNL     1     -39.555 -51.617  13.090  1.00  0.00     0.263 C 
HETATM    7  O   UNL     1     -38.765 -52.404  13.599  1.00  0.00    -0.267 OA
ENDROOT
BRANCH   1   8
HETATM    8  C   UNL     1     -41.521 -52.652  14.213  1.00  0.00     0.234 C 
BRANCH   8   9
HETATM    9  C   UNL     1     -41.881 -53.982  13.526  1.00  0.00     0.236 C 
HETATM   10  N   UNL     1     -43.155 -54.474  13.610  1.00  0.00    -0.351 N 
HETATM   11  H   UNL     1     -43.307 -55.352  13.124  1.00  0.00     0.163 HD
HETATM   12  O   UNL     1     -41.052 -54.584  12.838  1.00  0.00    -0.272 OA
BRANCH  10  13
HETATM   13  C   UNL     1     -44.296 -53.856  14.251  1.00  0.00     0.225 C 
BRANCH  13  14
HETATM   14  C   UNL     1     -45.652 -54.495  14.007  1.00  0.00     0.233 C 
HETATM   15  N   UNL     1     -46.664 -53.573  13.900  1.00  0.00    -0.369 N 
HETATM   16  H   UNL     1     -47.613 -53.909  13.822  1.00  0.00     0.159 HD
HETATM   17  H   UNL     1     -46.509 -52.580  14.037  1.00  0.00     0.159 HD
HETATM   18  O   UNL     1     -45.855 -55.697  13.914  1.00  0.00    -0.272 OA
ENDBRANCH  13  14
ENDBRANCH  10  13
ENDBRANCH   8   9
ENDBRANCH   1   8
BRANCH   5  19
HETATM   19  C   UNL     1     -37.576 -50.302  12.182  1.00  0.00     0.422 C 
HETATM   20  F   UNL     1     -36.953 -50.047  13.360  1.00  0.00    -0.166 F 
HETATM   21  F   UNL     1     -36.949 -51.385  11.644  1.00  0.00    -0.166 F 
HETATM   22  F   UNL     1     -37.267 -49.252  11.370  1.00  0.00    -0.166 F 
ENDBRANCH   5  19
TORSDOF 5
ENDMDL
MODEL 9
REMARK VINA RESULT:      -5.2      1.734      2.546
REMARK  5 active torsions:
REMARK  status: ('A' for Active; 'I' for Inactive)
REMARK       I    between atoms: N_1  and  C_2 
REMARK    1  A    between atoms: C_2  and  C_4 
REMARK    2  A    between atoms: C_4  and  N_5 
REMARK       I    between atoms: N_5  and  C_6 
REMARK    3  A    between atoms: C_6  and  C_8 
REMARK    4  A    between atoms: C_8  and  N_9 
REMARK    5  A    between atoms: C_13  and  C_16 
ROOT
HETATM    1  N   UNL     1     -42.087 -53.054  14.160  1.00  0.00    -0.315 N 
HETATM    2  C   UNL     1     -41.350 -53.908  14.960  1.00  0.00     0.095 C 
HETATM    3  C   UNL     1     -41.879 -55.044  15.429  1.00  0.00     0.018 C 
HETATM    4  C   UNL     1     -43.259 -55.350  15.158  1.00  0.00     0.023 C 
HETATM    5  C   UNL     1     -44.011 -54.565  14.366  1.00  0.00     0.115 C 
HETATM    6  C   UNL     1     -43.385 -53.373  13.743  1.00  0.00     0.263 C 
HETATM    7  O   UNL     1     -44.006 -52.732  12.902  1.00  0.00    -0.267 OA
ENDROOT
BRANCH   1   8
HETATM    8  C   UNL     1     -41.457 -51.800  13.718  1.00  0.00     0.234 C 
BRANCH   8   9
HETATM    9  C   UNL     1     -40.973 -51.901  12.260  1.00  0.00     0.236 C 
HETATM   10  N   UNL     1     -41.094 -50.826  11.421  1.00  0.00    -0.351 N 
HETATM   11  H   UNL     1     -40.745 -50.977  10.481  1.00  0.00     0.163 HD
HETATM   12  O   UNL     1     -40.412 -52.920  11.848  1.00  0.00    -0.272 OA
BRANCH  10  13
HETATM   13  C   UNL     1     -41.597 -49.509  11.747  1.00  0.00     0.225 C 
BRANCH  13  14
HETATM   14  C   UNL     1     -41.355 -48.409  10.728  1.00  0.00     0.233 C 
HETATM   15  N   UNL     1     -40.180 -47.732  10.944  1.00  0.00    -0.369 N 
HETATM   16  H   UNL     1     -39.976 -46.928  10.368  1.00  0.00     0.159 HD
HETATM   17  H   UNL     1     -39.584 -47.922  11.743  1.00  0.00     0.159 HD
HETATM   18  O   UNL     1     -42.107 -48.128   9.806  1.00  0.00    -0.272 OA
ENDBRANCH  13  14
ENDBRANCH  10  13
ENDBRANCH   8   9
ENDBRANCH   1   8
BRANCH   5  19
HETATM   19  C   UNL     1     -45.445 -54.829  14.073  1.00  0.00     0.422 C 
HETATM   20  F   UNL     1     -45.753 -56.058  13.592  1.00  0.00    -0.166 F 
HETATM   21  F   UNL     1     -46.207 -54.652  15.188  1.00  0.00    -0.166 F 
HETATM   22  F   UNL     1     -45.923 -53.944  13.153  1.00  0.00    -0.166 F 
ENDBRANCH   5  19
TORSDOF 5
ENDMDL
