MODEL 1
REMARK VINA RESULT:      -5.7      0.000      0.000
REMARK  5 active torsions:
REMARK  status: ('A' for Active; 'I' for Inactive)
REMARK    1  A    between atoms: C_2  and  C_5 
REMARK       I    between atoms: C_5  and  N_7 
REMARK    2  A    between atoms: N_7  and  C_8 
REMARK    3  A    between atoms: C_8  and  C_9 
REMARK    4  A    between atoms: C_9  and  C_10 
REMARK    5  A    between atoms: C_13  and  C_17 
ROOT
HETATM    1  C   UNL     1     -40.774 -52.544  12.909  1.00  0.00     0.149 A 
HETATM    2  N   UNL     1     -39.833 -51.663  13.164  1.00  0.00    -0.326 N 
ATOM      3  HN  UNL     1     -39.200 -51.612  13.964  1.00  0.00     0.169 HD
HETATM    4  C   UNL     1     -39.922 -50.830  12.077  1.00  0.00     0.108 A 
HETATM    5  N   UNL     1     -40.872 -51.156  11.192  1.00  0.00    -0.247 N 
ATOM      6  HN  UNL     1     -41.117 -50.683  10.322  1.00  0.00     0.196 HD
HETATM    7  O   UNL     1     -41.447 -52.300  11.748  1.00  0.00    -0.223 OA
ENDROOT
BRANCH   1   8
HETATM    8  C   UNL     1     -41.165 -53.752  13.670  1.00  0.00     0.106 C 
BRANCH   8   9
HETATM    9  C   UNL     1     -42.591 -54.177  13.333  1.00  0.00     0.130 C 
BRANCH   9  10
HETATM   10  N   UNL     1     -43.570 -53.154  13.670  1.00  0.00    -0.360 N 
HETATM   11  C   UNL     1     -44.907 -53.307  13.368  1.00  0.00     0.225 C 
HETATM   12  O   UNL     1     -45.333 -54.333  12.844  1.00  0.00    -0.273 OA
HETATM   13  H   UNL     1     -43.256 -52.335  14.173  1.00  0.00     0.162 HD
BRANCH  11  14
HETATM   14  C   UNL     1     -45.813 -52.116  13.736  1.00  0.00     0.030 C 
HETATM   15  C   UNL     1     -46.845 -52.570  14.785  1.00  0.00     0.024 C 
HETATM   16  C   UNL     1     -46.565 -51.616  12.494  1.00  0.00     0.024 C 
HETATM   17  C   UNL     1     -44.971 -50.979  14.332  1.00  0.00     0.024 C 
ENDBRANCH  11  14
ENDBRANCH   9  10
ENDBRANCH   8   9
ENDBRANCH   1   8
BRANCH   4  18
HETATM   18  C   UNL     1     -38.996 -49.644  11.859  1.00  0.00     0.055 A 
HETATM   19  C   UNL     1     -37.577 -49.926  11.399  1.00  0.00     0.013 A 
HETATM   20  C   UNL     1     -37.817 -49.444  12.789  1.00  0.00     0.013 A 
ENDBRANCH   4  18
TORSDOF 5
ENDMDL
MODEL 2
REMARK VINA RESULT:      -5.5      4.791      7.661
REMARK  5 active torsions:
REMARK  status: ('A' for Active; 'I' for Inactive)
REMARK    1  A    between atoms: C_2  and  C_5 
REMARK       I    between atoms: C_5  and  N_7 
REMARK    2  A    between atoms: N_7  and  C_8 
REMARK    3  A    between atoms: C_8  and  C_9 
REMARK    4  A    between atoms: C_9  and  C_10 
REMARK    5  A    between atoms: C_13  and  C_17 
ROOT
HETATM    1  C   UNL     1     -42.359 -46.856  10.891  1.00  0.00     0.149 A 
HETATM    2  N   UNL     1     -43.527 -46.344  10.574  1.00  0.00    -0.326 N 
ATOM      3  HN  UNL     1     -44.010 -45.543  10.983  1.00  0.00     0.169 HD
HETATM    4  C   UNL     1     -43.928 -47.166   9.550  1.00  0.00     0.108 A 
HETATM    5  N   UNL     1     -43.070 -48.148   9.247  1.00  0.00    -0.247 N 
ATOM      6  HN  UNL     1     -43.162 -48.870   8.531  1.00  0.00     0.196 HD
HETATM    7  O   UNL     1     -42.022 -47.946  10.145  1.00  0.00    -0.223 OA
ENDROOT
BRANCH   1   8
HETATM    8  C   UNL     1     -41.372 -46.399  11.896  1.00  0.00     0.106 C 
BRANCH   8   9
HETATM    9  C   UNL     1     -39.947 -46.542  11.371  1.00  0.00     0.130 C 
BRANCH   9  10
HETATM   10  N   UNL     1     -39.474 -47.918  11.414  1.00  0.00    -0.360 N 
HETATM   11  C   UNL     1     -38.850 -48.431  12.533  1.00  0.00     0.225 C 
HETATM   12  O   UNL     1     -38.712 -47.763  13.554  1.00  0.00    -0.273 OA
HETATM   13  H   UNL     1     -39.648 -48.512  10.615  1.00  0.00     0.162 HD
BRANCH  11  14
HETATM   14  C   UNL     1     -38.356 -49.886  12.409  1.00  0.00     0.030 C 
HETATM   15  C   UNL     1     -37.596 -50.273  13.691  1.00  0.00     0.024 C 
HETATM   16  C   UNL     1     -37.400 -50.022  11.214  1.00  0.00     0.024 C 
HETATM   17  C   UNL     1     -39.549 -50.835  12.236  1.00  0.00     0.024 C 
ENDBRANCH  11  14
ENDBRANCH   9  10
ENDBRANCH   8   9
ENDBRANCH   1   8
BRANCH   4  18
HETATM   18  C   UNL     1     -45.225 -46.967   8.783  1.00  0.00     0.055 A 
HETATM   19  C   UNL     1     -46.518 -47.398   9.451  1.00  0.00     0.013 A 
HETATM   20  C   UNL     1     -45.991 -48.180   8.297  1.00  0.00     0.013 A 
ENDBRANCH   4  18
TORSDOF 5
ENDMDL
MODEL 3
REMARK VINA RESULT:      -5.4      3.836      5.225
REMARK  5 active torsions:
REMARK  status: ('A' for Active; 'I' for Inactive)
REMARK    1  A    between atoms: C_2  and  C_5 
REMARK       I    between atoms: C_5  and  N_7 
REMARK    2  A    between atoms: N_7  and  C_8 
REMARK    3  A    between atoms: C_8  and  C_9 
REMARK    4  A    between atoms: C_9  and  C_10 
REMARK    5  A    between atoms: C_13  and  C_17 
ROOT
HETATM    1  C   UNL     1     -42.894 -48.119  11.279  1.00  0.00     0.149 A 
HETATM    2  N   UNL     1     -44.085 -48.262  10.743  1.00  0.00    -0.326 N 
ATOM      3  HN  UNL     1     -44.901 -48.750  11.113  1.00  0.00     0.169 HD
HETATM    4  C   UNL     1     -43.945 -47.586   9.557  1.00  0.00     0.108 A 
HETATM    5  N   UNL     1     -42.733 -47.057   9.349  1.00  0.00    -0.247 N 
ATOM      6  HN  UNL     1     -42.405 -46.521   8.544  1.00  0.00     0.196 HD
HETATM    7  O   UNL     1     -42.026 -47.415  10.497  1.00  0.00    -0.223 OA
ENDROOT
BRANCH   1   8
HETATM    8  C   UNL     1     -42.393 -48.572  12.597  1.00  0.00     0.106 C 
BRANCH   8   9
HETATM    9  C   UNL     1     -42.506 -50.088  12.736  1.00  0.00     0.130 C 
BRANCH   9  10
HETATM   10  N   UNL     1     -43.841 -50.511  13.133  1.00  0.00    -0.360 N 
HETATM   11  C   UNL     1     -44.246 -51.824  13.015  1.00  0.00     0.225 C 
HETATM   12  O   UNL     1     -43.482 -52.698  12.615  1.00  0.00    -0.273 OA
HETATM   13  H   UNL     1     -44.462 -49.825  13.541  1.00  0.00     0.162 HD
BRANCH  11  14
HETATM   14  C   UNL     1     -45.705 -52.109  13.423  1.00  0.00     0.030 C 
HETATM   15  C   UNL     1     -46.641 -51.714  12.267  1.00  0.00     0.024 C 
HETATM   16  C   UNL     1     -46.081 -51.280  14.661  1.00  0.00     0.024 C 
HETATM   17  C   UNL     1     -45.887 -53.604  13.718  1.00  0.00     0.024 C 
ENDBRANCH  11  14
ENDBRANCH   9  10
ENDBRANCH   8   9
ENDBRANCH   1   8
BRANCH   4  18
HETATM   18  C   UNL     1     -45.080 -47.409   8.562  1.00  0.00     0.055 A 
HETATM   19  C   UNL     1     -46.371 -46.787   9.060  1.00  0.00     0.013 A 
HETATM   20  C   UNL     1     -46.339 -48.236   8.718  1.00  0.00     0.013 A 
ENDBRANCH   4  18
TORSDOF 5
ENDMDL
MODEL 4
REMARK VINA RESULT:      -5.3      3.898      6.237
REMARK  5 active torsions:
REMARK  status: ('A' for Active; 'I' for Inactive)
REMARK    1  A    between atoms: C_2  and  C_5 
REMARK       I    between atoms: C_5  and  N_7 
REMARK    2  A    between atoms: N_7  and  C_8 
REMARK    3  A    between atoms: C_8  and  C_9 
REMARK    4  A    between atoms: C_9  and  C_10 
REMARK    5  A    between atoms: C_13  and  C_17 
ROOT
HETATM    1  C   UNL     1     -42.330 -50.897  12.550  1.00  0.00     0.149 A 
HETATM    2  N   UNL     1     -43.461 -51.490  12.859  1.00  0.00    -0.326 N 
ATOM      3  HN  UNL     1     -44.305 -51.089  13.269  1.00  0.00     0.169 HD
HETATM    4  C   UNL     1     -43.212 -52.788  12.488  1.00  0.00     0.108 A 
HETATM    5  N   UNL     1     -41.990 -53.006  11.986  1.00  0.00    -0.247 N 
ATOM      6  HN  UNL     1     -41.590 -53.884  11.651  1.00  0.00     0.196 HD
HETATM    7  O   UNL     1     -41.396 -51.744  12.030  1.00  0.00    -0.223 OA
ENDROOT
BRANCH   1   8
HETATM    8  C   UNL     1     -41.957 -49.468  12.651  1.00  0.00     0.106 C 
BRANCH   8   9
HETATM    9  C   UNL     1     -41.365 -48.959  11.340  1.00  0.00     0.130 C 
BRANCH   9  10
HETATM   10  N   UNL     1     -42.390 -48.599  10.371  1.00  0.00    -0.360 N 
HETATM   11  C   UNL     1     -42.738 -47.284  10.143  1.00  0.00     0.225 C 
HETATM   12  O   UNL     1     -42.164 -46.360  10.715  1.00  0.00    -0.273 OA
HETATM   13  H   UNL     1     -42.820 -49.337   9.829  1.00  0.00     0.162 HD
BRANCH  11  14
HETATM   14  C   UNL     1     -43.876 -47.063   9.129  1.00  0.00     0.030 C 
HETATM   15  C   UNL     1     -45.178 -47.667   9.688  1.00  0.00     0.024 C 
HETATM   16  C   UNL     1     -43.546 -47.759   7.800  1.00  0.00     0.024 C 
HETATM   17  C   UNL     1     -44.090 -45.562   8.895  1.00  0.00     0.024 C 
ENDBRANCH  11  14
ENDBRANCH   9  10
ENDBRANCH   8   9
ENDBRANCH   1   8
BRANCH   4  18
HETATM   18  C   UNL     1     -44.245 -53.897  12.597  1.00  0.00     0.055 A 
HETATM   19  C   UNL     1     -45.448 -53.663  13.492  1.00  0.00     0.013 A 
HETATM   20  C   UNL     1     -44.402 -54.638  13.908  1.00  0.00     0.013 A 
ENDBRANCH   4  18
TORSDOF 5
ENDMDL
MODEL 5
REMARK VINA RESULT:      -5.0      3.415      5.662
REMARK  5 active torsions:
REMARK  status: ('A' for Active; 'I' for Inactive)
REMARK    1  A    between atoms: C_2  and  C_5 
REMARK       I    between atoms: C_5  and  N_7 
REMARK    2  A    between atoms: N_7  and  C_8 
REMARK    3  A    between atoms: C_8  and  C_9 
REMARK    4  A    between atoms: C_9  and  C_10 
REMARK    5  A    between atoms: C_13  and  C_17 
ROOT
HETATM    1  C   UNL     1     -41.124 -48.297  11.344  1.00  0.00     0.149 A 
HETATM    2  N   UNL     1     -41.355 -47.744  10.174  1.00  0.00    -0.326 N 
ATOM      3  HN  UNL     1     -40.691 -47.345   9.510  1.00  0.00     0.169 HD
HETATM    4  C   UNL     1     -42.721 -47.843  10.079  1.00  0.00     0.108 A 
HETATM    5  N   UNL     1     -43.320 -48.413  11.132  1.00  0.00    -0.247 N 
ATOM      6  HN  UNL     1     -44.315 -48.586  11.278  1.00  0.00     0.196 HD
HETATM    7  O   UNL     1     -42.255 -48.713  11.982  1.00  0.00    -0.223 OA
ENDROOT
BRANCH   1   8
HETATM    8  C   UNL     1     -39.835 -48.555  12.026  1.00  0.00     0.106 C 
BRANCH   8   9
HETATM    9  C   UNL     1     -39.229 -49.880  11.573  1.00  0.00     0.130 C 
BRANCH   9  10
HETATM   10  N   UNL     1     -39.372 -50.927  12.572  1.00  0.00    -0.360 N 
HETATM   11  C   UNL     1     -40.407 -51.838  12.520  1.00  0.00     0.225 C 
HETATM   12  O   UNL     1     -41.223 -51.830  11.601  1.00  0.00    -0.273 OA
HETATM   13  H   UNL     1     -38.667 -51.004  13.294  1.00  0.00     0.162 HD
BRANCH  11  14
HETATM   14  C   UNL     1     -40.458 -52.853  13.678  1.00  0.00     0.030 C 
HETATM   15  C   UNL     1     -39.033 -53.084  14.214  1.00  0.00     0.024 C 
HETATM   16  C   UNL     1     -41.017 -54.196  13.182  1.00  0.00     0.024 C 
HETATM   17  C   UNL     1     -41.332 -52.311  14.817  1.00  0.00     0.024 C 
ENDBRANCH  11  14
ENDBRANCH   9  10
ENDBRANCH   8   9
ENDBRANCH   1   8
BRANCH   4  18
HETATM   18  C   UNL     1     -43.506 -47.382   8.862  1.00  0.00     0.055 A 
HETATM   19  C   UNL     1     -44.082 -45.978   8.879  1.00  0.00     0.013 A 
HETATM   20  C   UNL     1     -44.997 -47.149   8.987  1.00  0.00     0.013 A 
ENDBRANCH   4  18
TORSDOF 5
ENDMDL
MODEL 6
REMARK VINA RESULT:      -4.8      6.570      8.645
REMARK  5 active torsions:
REMARK  status: ('A' for Active; 'I' for Inactive)
REMARK    1  A    between atoms: C_2  and  C_5 
REMARK       I    between atoms: C_5  and  N_7 
REMARK    2  A    between atoms: N_7  and  C_8 
REMARK    3  A    between atoms: C_8  and  C_9 
REMARK    4  A    between atoms: C_9  and  C_10 
REMARK    5  A    between atoms: C_13  and  C_17 
ROOT
HETATM    1  C   UNL     1     -42.787 -46.857  12.041  1.00  0.00     0.149 A 
HETATM    2  N   UNL     1     -43.742 -46.800  11.141  1.00  0.00    -0.326 N 
ATOM      3  HN  UNL     1     -44.750 -46.722  11.278  1.00  0.00     0.169 HD
HETATM    4  C   UNL     1     -43.031 -46.873   9.969  1.00  0.00     0.108 A 
HETATM    5  N   UNL     1     -41.705 -46.983  10.119  1.00  0.00    -0.247 N 
ATOM      6  HN  UNL     1     -40.989 -47.053   9.395  1.00  0.00     0.196 HD
HETATM    7  O   UNL     1     -41.539 -46.977  11.504  1.00  0.00    -0.223 OA
ENDROOT
BRANCH   1   8
HETATM    8  C   UNL     1     -42.877 -46.773  13.517  1.00  0.00     0.106 C 
BRANCH   8   9
HETATM    9  C   UNL     1     -42.808 -45.324  13.990  1.00  0.00     0.130 C 
BRANCH   9  10
HETATM   10  N   UNL     1     -41.906 -44.517  13.182  1.00  0.00    -0.360 N 
HETATM   11  C   UNL     1     -42.256 -43.254  12.753  1.00  0.00     0.225 C 
HETATM   12  O   UNL     1     -43.324 -42.740  13.075  1.00  0.00    -0.273 OA
HETATM   13  H   UNL     1     -40.988 -44.886  12.971  1.00  0.00     0.162 HD
BRANCH  11  14
HETATM   14  C   UNL     1     -41.220 -42.545  11.859  1.00  0.00     0.030 C 
HETATM   15  C   UNL     1     -41.947 -41.569  10.916  1.00  0.00     0.024 C 
HETATM   16  C   UNL     1     -40.460 -43.573  11.008  1.00  0.00     0.024 C 
HETATM   17  C   UNL     1     -40.232 -41.750  12.725  1.00  0.00     0.024 C 
ENDBRANCH  11  14
ENDBRANCH   9  10
ENDBRANCH   8   9
ENDBRANCH   1   8
BRANCH   4  18
HETATM   18  C   UNL     1     -43.680 -46.797   8.596  1.00  0.00     0.055 A 
HETATM   19  C   UNL     1     -44.753 -47.817   8.260  1.00  0.00     0.013 A 
HETATM   20  C   UNL     1     -43.423 -47.903   7.594  1.00  0.00     0.013 A 
ENDBRANCH   4  18
TORSDOF 5
ENDMDL
MODEL 7
REMARK VINA RESULT:      -4.8      4.186      6.738
REMARK  5 active torsions:
REMARK  status: ('A' for Active; 'I' for Inactive)
REMARK    1  A    between atoms: C_2  and  C_5 
REMARK       I    between atoms: C_5  and  N_7 
REMARK    2  A    between atoms: N_7  and  C_8 
REMARK    3  A    between atoms: C_8  and  C_9 
REMARK    4  A    between atoms: C_9  and  C_10 
REMARK    5  A    between atoms: C_13  and  C_17 
ROOT
HETATM    1  C   UNL     1     -41.255 -48.953  12.081  1.00  0.00     0.149 A 
HETATM    2  N   UNL     1     -40.223 -49.017  12.892  1.00  0.00    -0.326 N 
ATOM      3  HN  UNL     1     -40.177 -48.810  13.890  1.00  0.00     0.169 HD
HETATM    4  C   UNL     1     -39.225 -49.435  12.048  1.00  0.00     0.108 A 
HETATM    5  N   UNL     1     -39.600 -49.612  10.775  1.00  0.00    -0.247 N 
ATOM      6  HN  UNL     1     -39.031 -49.912   9.983  1.00  0.00     0.196 HD
HETATM    7  O   UNL     1     -40.956 -49.286  10.793  1.00  0.00    -0.223 OA
ENDROOT
BRANCH   1   8
HETATM    8  C   UNL     1     -42.666 -48.613  12.377  1.00  0.00     0.106 C 
BRANCH   8   9
HETATM    9  C   UNL     1     -43.023 -47.230  11.841  1.00  0.00     0.130 C 
BRANCH   9  10
HETATM   10  N   UNL     1     -41.906 -46.300  11.914  1.00  0.00    -0.360 N 
HETATM   11  C   UNL     1     -41.579 -45.479  10.854  1.00  0.00     0.225 C 
HETATM   12  O   UNL     1     -42.247 -45.466   9.823  1.00  0.00    -0.273 OA
HETATM   13  H   UNL     1     -41.390 -46.235  12.781  1.00  0.00     0.162 HD
BRANCH  11  14
HETATM   14  C   UNL     1     -40.338 -44.589  11.061  1.00  0.00     0.030 C 
HETATM   15  C   UNL     1     -39.380 -44.772   9.870  1.00  0.00     0.024 C 
HETATM   16  C   UNL     1     -39.603 -44.994  12.347  1.00  0.00     0.024 C 
HETATM   17  C   UNL     1     -40.755 -43.114  11.138  1.00  0.00     0.024 C 
ENDBRANCH  11  14
ENDBRANCH   9  10
ENDBRANCH   8   9
ENDBRANCH   1   8
BRANCH   4  18
HETATM   18  C   UNL     1     -37.806 -49.718  12.513  1.00  0.00     0.055 A 
HETATM   19  C   UNL     1     -37.464 -51.136  12.933  1.00  0.00     0.013 A 
HETATM   20  C   UNL     1     -37.558 -50.066  13.966  1.00  0.00     0.013 A 
ENDBRANCH   4  18
TORSDOF 5
ENDMDL
MODEL 8
REMARK VINA RESULT:      -4.7      2.997      5.859
REMARK  5 active torsions:
REMARK  status: ('A' for Active; 'I' for Inactive)
REMARK    1  A    between atoms: C_2  and  C_5 
REMARK       I    between atoms: C_5  and  N_7 
REMARK    2  A    between atoms: N_7  and  C_8 
REMARK    3  A    between atoms: C_8  and  C_9 
REMARK    4  A    between atoms: C_9  and  C_10 
REMARK    5  A    between atoms: C_13  and  C_17 
ROOT
HETATM    1  C   UNL     1     -40.735 -51.924  12.914  1.00  0.00     0.149 A 
HETATM    2  N   UNL     1     -41.727 -52.275  13.702  1.00  0.00    -0.326 N 
ATOM      3  HN  UNL     1     -42.211 -51.723  14.411  1.00  0.00     0.169 HD
HETATM    4  C   UNL     1     -41.943 -53.576  13.323  1.00  0.00     0.108 A 
HETATM    5  N   UNL     1     -41.126 -54.027  12.362  1.00  0.00    -0.247 N 
ATOM      6  HN  UNL     1     -41.104 -54.953  11.932  1.00  0.00     0.196 HD
HETATM    7  O   UNL     1     -40.315 -52.926  12.090  1.00  0.00    -0.223 OA
ENDROOT
BRANCH   1   8
HETATM    8  C   UNL     1     -40.057 -50.615  12.780  1.00  0.00     0.106 C 
BRANCH   8   9
HETATM    9  C   UNL     1     -40.036 -50.153  11.325  1.00  0.00     0.130 C 
BRANCH   9  10
HETATM   10  N   UNL     1     -41.171 -49.305  10.994  1.00  0.00    -0.360 N 
HETATM   11  C   UNL     1     -41.067 -47.930  10.986  1.00  0.00     0.225 C 
HETATM   12  O   UNL     1     -39.999 -47.366  11.211  1.00  0.00    -0.273 OA
HETATM   13  H   UNL     1     -42.041 -49.748  10.727  1.00  0.00     0.162 HD
BRANCH  11  14
HETATM   14  C   UNL     1     -42.367 -47.166  10.670  1.00  0.00     0.030 C 
HETATM   15  C   UNL     1     -43.396 -47.435  11.784  1.00  0.00     0.024 C 
HETATM   16  C   UNL     1     -42.955 -47.647   9.335  1.00  0.00     0.024 C 
HETATM   17  C   UNL     1     -42.091 -45.658  10.608  1.00  0.00     0.024 C 
ENDBRANCH  11  14
ENDBRANCH   9  10
ENDBRANCH   8   9
ENDBRANCH   1   8
BRANCH   4  18
HETATM   18  C   UNL     1     -43.044 -54.443  13.912  1.00  0.00     0.055 A 
HETATM   19  C   UNL     1     -44.425 -54.356  13.289  1.00  0.00     0.013 A 
HETATM   20  C   UNL     1     -44.194 -53.783  14.645  1.00  0.00     0.013 A 
ENDBRANCH   4  18
TORSDOF 5
ENDMDL
MODEL 9
REMARK VINA RESULT:      -4.7      1.790      2.371
REMARK  5 active torsions:
REMARK  status: ('A' for Active; 'I' for Inactive)
REMARK    1  A    between atoms: C_2  and  C_5 
REMARK       I    between atoms: C_5  and  N_7 
REMARK    2  A    between atoms: N_7  and  C_8 
REMARK    3  A    between atoms: C_8  and  C_9 
REMARK    4  A    between atoms: C_9  and  C_10 
REMARK    5  A    between atoms: C_13  and  C_17 
ROOT
HETATM    1  C   UNL     1     -39.989 -51.784  13.161  1.00  0.00     0.149 A 
HETATM    2  N   UNL     1     -39.865 -50.478  13.095  1.00  0.00    -0.326 N 
ATOM      3  HN  UNL     1     -40.590 -49.767  12.993  1.00  0.00     0.169 HD
HETATM    4  C   UNL     1     -38.505 -50.317  13.199  1.00  0.00     0.108 A 
HETATM    5  N   UNL     1     -37.810 -51.456  13.311  1.00  0.00    -0.247 N 
ATOM      6  HN  UNL     1     -36.800 -51.576  13.398  1.00  0.00     0.196 HD
HETATM    7  O   UNL     1     -38.799 -52.439  13.282  1.00  0.00    -0.223 OA
ENDROOT
BRANCH   1   8
HETATM    8  C   UNL     1     -41.216 -52.614  13.161  1.00  0.00     0.106 C 
BRANCH   8   9
HETATM    9  C   UNL     1     -42.226 -52.102  12.139  1.00  0.00     0.130 C 
BRANCH   9  10
HETATM   10  N   UNL     1     -43.588 -52.504  12.454  1.00  0.00    -0.360 N 
HETATM   11  C   UNL     1     -44.468 -51.645  13.080  1.00  0.00     0.225 C 
HETATM   12  O   UNL     1     -44.151 -50.491  13.355  1.00  0.00    -0.273 OA
HETATM   13  H   UNL     1     -43.898 -53.423  12.166  1.00  0.00     0.162 HD
BRANCH  11  14
HETATM   14  C   UNL     1     -45.857 -52.232  13.398  1.00  0.00     0.030 C 
HETATM   15  C   UNL     1     -46.406 -51.570  14.675  1.00  0.00     0.024 C 
HETATM   16  C   UNL     1     -45.752 -53.745  13.637  1.00  0.00     0.024 C 
HETATM   17  C   UNL     1     -46.825 -51.950  12.241  1.00  0.00     0.024 C 
ENDBRANCH  11  14
ENDBRANCH   9  10
ENDBRANCH   8   9
ENDBRANCH   1   8
BRANCH   4  18
HETATM   18  C   UNL     1     -37.827 -48.957  13.226  1.00  0.00     0.055 A 
HETATM   19  C   UNL     1     -37.467 -48.369  14.578  1.00  0.00     0.013 A 
HETATM   20  C   UNL     1     -38.577 -47.767  13.787  1.00  0.00     0.013 A 
ENDBRANCH   4  18
TORSDOF 5
ENDMDL
