MODEL 1
REMARK VINA RESULT:      -6.8      0.000      0.000
REMARK  5 active torsions:
REMARK  status: ('A' for Active; 'I' for Inactive)
REMARK    1  A    between atoms: N_11  and  C_12 
REMARK    2  A    between atoms: C_12  and  C_13 
REMARK       I    between atoms: C_13  and  N_15 
REMARK    3  A    between atoms: N_15  and  C_16 
REMARK    4  A    between atoms: C_16  and  C_17 
REMARK    5  A    between atoms: C_17  and  C_18 
ROOT
HETATM    1  C   UNL     1     -43.474 -50.671  15.693  1.00  0.00     0.013 C 
HETATM    2  C   UNL     1     -44.981 -50.526  15.935  1.00  0.00     0.019 C 
HETATM    3  C   UNL     1     -45.250 -50.253  17.426  1.00  0.00     0.007 C 
HETATM    4  C   UNL     1     -46.738 -50.066  17.712  1.00  0.00     0.001 C 
HETATM    5  C   UNL     1     -47.586 -51.216  17.176  1.00  0.00     0.003 C 
HETATM    6  C   UNL     1     -47.320 -51.480  15.689  1.00  0.00     0.041 C 
HETATM    7  C   UNL     1     -45.830 -51.720  15.428  1.00  0.00     0.119 C 
HETATM    8  N   UNL     1     -45.443 -52.994  16.000  1.00  0.00    -0.324 N 
HETATM    9  C   UNL     1     -45.082 -53.914  15.049  1.00  0.00     0.326 C 
HETATM   10  O   UNL     1     -44.849 -55.085  15.294  1.00  0.00    -0.247 OA
HETATM   11  N   UNL     1     -45.033 -53.286  13.842  1.00  0.00    -0.259 N 
HETATM   12  C   UNL     1     -45.541 -52.023  13.938  1.00  0.00     0.257 C 
HETATM   13  O   UNL     1     -45.707 -51.256  13.003  1.00  0.00    -0.270 OA
HETATM   14  H   UNL     1     -45.589 -53.291  16.959  1.00  0.00     0.165 HD
ENDROOT
BRANCH  11  15
HETATM   15  C   UNL     1     -44.342 -53.835  12.703  1.00  0.00     0.239 C 
BRANCH  15  16
HETATM   16  C   UNL     1     -42.854 -53.539  12.642  1.00  0.00     0.236 C 
HETATM   17  O   UNL     1     -42.065 -54.106  13.401  1.00  0.00    -0.272 OA
HETATM   18  N   UNL     1     -42.462 -52.497  11.820  1.00  0.00    -0.359 N 
HETATM   19  H   UNL     1     -43.178 -51.902  11.414  1.00  0.00     0.162 HD
BRANCH  18  20
HETATM   20  C   UNL     1     -41.095 -52.034  11.961  1.00  0.00     0.127 C 
BRANCH  20  21
HETATM   21  C   UNL     1     -40.919 -50.743  12.756  1.00  0.00     0.059 C 
BRANCH  21  22
HETATM   22  C   UNL     1     -41.537 -49.599  11.979  1.00  0.00    -0.041 A 
HETATM   23  C   UNL     1     -42.716 -48.993  12.414  1.00  0.00     0.010 A 
HETATM   24  C   UNL     1     -43.339 -48.038  11.610  1.00  0.00     0.018 A 
HETATM   25  C   UNL     1     -42.754 -47.724  10.398  1.00  0.00     0.087 A 
HETATM   26  N   UNL     1     -41.607 -48.277   9.949  1.00  0.00    -0.375 N 
HETATM   27  C   UNL     1     -41.027 -49.205  10.744  1.00  0.00     0.094 A 
ATOM     28  HN  UNL     1     -41.198 -48.008   9.054  1.00  0.00     0.164 HD
ENDBRANCH  21  22
ENDBRANCH  20  21
ENDBRANCH  18  20
ENDBRANCH  15  16
ENDBRANCH  11  15
TORSDOF 5
ENDMDL
MODEL 2
REMARK VINA RESULT:      -6.7      1.810      2.457
REMARK  5 active torsions:
REMARK  status: ('A' for Active; 'I' for Inactive)
REMARK    1  A    between atoms: N_11  and  C_12 
REMARK    2  A    between atoms: C_12  and  C_13 
REMARK       I    between atoms: C_13  and  N_15 
REMARK    3  A    between atoms: N_15  and  C_16 
REMARK    4  A    between atoms: C_16  and  C_17 
REMARK    5  A    between atoms: C_17  and  C_18 
ROOT
HETATM    1  C   UNL     1     -44.457 -50.758  13.292  1.00  0.00     0.013 C 
HETATM    2  C   UNL     1     -45.358 -51.800  13.967  1.00  0.00     0.019 C 
HETATM    3  C   UNL     1     -46.157 -51.143  15.106  1.00  0.00     0.007 C 
HETATM    4  C   UNL     1     -47.097 -52.134  15.788  1.00  0.00     0.001 C 
HETATM    5  C   UNL     1     -46.380 -53.401  16.245  1.00  0.00     0.003 C 
HETATM    6  C   UNL     1     -45.591 -54.055  15.105  1.00  0.00     0.041 C 
HETATM    7  C   UNL     1     -44.613 -53.064  14.468  1.00  0.00     0.119 C 
HETATM    8  N   UNL     1     -43.545 -52.776  15.404  1.00  0.00    -0.324 N 
HETATM    9  C   UNL     1     -42.327 -53.238  14.974  1.00  0.00     0.326 C 
HETATM   10  O   UNL     1     -41.318 -53.223  15.659  1.00  0.00    -0.247 OA
HETATM   11  N   UNL     1     -42.464 -53.683  13.696  1.00  0.00    -0.259 N 
HETATM   12  C   UNL     1     -43.780 -53.711  13.336  1.00  0.00     0.257 C 
HETATM   13  O   UNL     1     -44.214 -54.147  12.282  1.00  0.00    -0.270 OA
HETATM   14  H   UNL     1     -43.654 -52.455  16.360  1.00  0.00     0.165 HD
ENDROOT
BRANCH  11  15
HETATM   15  C   UNL     1     -41.342 -53.884  12.814  1.00  0.00     0.239 C 
BRANCH  15  16
HETATM   16  C   UNL     1     -40.599 -52.622  12.411  1.00  0.00     0.236 C 
HETATM   17  O   UNL     1     -39.514 -52.337  12.922  1.00  0.00    -0.272 OA
HETATM   18  N   UNL     1     -41.274 -51.745  11.580  1.00  0.00    -0.359 N 
HETATM   19  H   UNL     1     -42.258 -51.909  11.395  1.00  0.00     0.162 HD
BRANCH  18  20
HETATM   20  C   UNL     1     -40.690 -50.428  11.411  1.00  0.00     0.127 C 
BRANCH  20  21
HETATM   21  C   UNL     1     -41.207 -49.354  12.366  1.00  0.00     0.059 C 
BRANCH  21  22
HETATM   22  C   UNL     1     -41.725 -48.185  11.556  1.00  0.00    -0.041 A 
HETATM   23  C   UNL     1     -43.082 -48.071  11.249  1.00  0.00     0.010 A 
HETATM   24  C   UNL     1     -43.513 -47.062  10.387  1.00  0.00     0.018 A 
HETATM   25  C   UNL     1     -42.565 -46.202   9.865  1.00  0.00     0.087 A 
HETATM   26  N   UNL     1     -41.247 -46.270  10.148  1.00  0.00    -0.375 N 
HETATM   27  C   UNL     1     -40.854 -47.262  10.980  1.00  0.00     0.094 A 
ATOM     28  HN  UNL     1     -40.580 -45.607   9.754  1.00  0.00     0.164 HD
ENDBRANCH  21  22
ENDBRANCH  20  21
ENDBRANCH  18  20
ENDBRANCH  15  16
ENDBRANCH  11  15
TORSDOF 5
ENDMDL
MODEL 3
REMARK VINA RESULT:      -6.6      2.322      3.426
REMARK  5 active torsions:
REMARK  status: ('A' for Active; 'I' for Inactive)
REMARK    1  A    between atoms: N_11  and  C_12 
REMARK    2  A    between atoms: C_12  and  C_13 
REMARK       I    between atoms: C_13  and  N_15 
REMARK    3  A    between atoms: N_15  and  C_16 
REMARK    4  A    between atoms: C_16  and  C_17 
REMARK    5  A    between atoms: C_17  and  C_18 
ROOT
HETATM    1  C   UNL     1     -42.623 -50.749  14.878  1.00  0.00     0.013 C 
HETATM    2  C   UNL     1     -43.657 -51.268  13.870  1.00  0.00     0.019 C 
HETATM    3  C   UNL     1     -45.079 -51.024  14.405  1.00  0.00     0.007 C 
HETATM    4  C   UNL     1     -46.147 -51.493  13.419  1.00  0.00     0.001 C 
HETATM    5  C   UNL     1     -45.939 -52.938  12.975  1.00  0.00     0.003 C 
HETATM    6  C   UNL     1     -44.522 -53.174  12.437  1.00  0.00     0.041 C 
HETATM    7  C   UNL     1     -43.465 -52.750  13.460  1.00  0.00     0.119 C 
HETATM    8  N   UNL     1     -43.484 -53.671  14.579  1.00  0.00    -0.324 N 
HETATM    9  C   UNL     1     -42.332 -54.409  14.677  1.00  0.00     0.326 C 
HETATM   10  O   UNL     1     -42.185 -55.332  15.460  1.00  0.00    -0.247 OA
HETATM   11  N   UNL     1     -41.434 -53.922  13.779  1.00  0.00    -0.259 N 
HETATM   12  C   UNL     1     -42.025 -53.011  12.953  1.00  0.00     0.257 C 
HETATM   13  O   UNL     1     -41.492 -52.475  11.996  1.00  0.00    -0.270 OA
HETATM   14  H   UNL     1     -44.294 -53.924  15.134  1.00  0.00     0.165 HD
ENDROOT
BRANCH  11  15
HETATM   15  C   UNL     1     -40.021 -54.198  13.859  1.00  0.00     0.239 C 
BRANCH  15  16
HETATM   16  C   UNL     1     -39.188 -53.127  14.540  1.00  0.00     0.236 C 
HETATM   17  O   UNL     1     -39.028 -53.133  15.763  1.00  0.00    -0.272 OA
HETATM   18  N   UNL     1     -38.769 -52.071  13.749  1.00  0.00    -0.359 N 
HETATM   19  H   UNL     1     -39.143 -51.989  12.810  1.00  0.00     0.162 HD
BRANCH  18  20
HETATM   20  C   UNL     1     -38.214 -50.921  14.438  1.00  0.00     0.127 C 
BRANCH  20  21
HETATM   21  C   UNL     1     -37.848 -49.737  13.547  1.00  0.00     0.059 C 
BRANCH  21  22
HETATM   22  C   UNL     1     -39.034 -49.397  12.669  1.00  0.00    -0.041 A 
HETATM   23  C   UNL     1     -40.076 -48.602  13.148  1.00  0.00     0.010 A 
HETATM   24  C   UNL     1     -41.219 -48.418  12.370  1.00  0.00     0.018 A 
HETATM   25  C   UNL     1     -41.275 -49.039  11.137  1.00  0.00     0.087 A 
HETATM   26  N   UNL     1     -40.283 -49.804  10.633  1.00  0.00    -0.375 N 
HETATM   27  C   UNL     1     -39.189 -49.972  11.409  1.00  0.00     0.094 A 
ATOM     28  HN  UNL     1     -40.356 -50.234   9.710  1.00  0.00     0.164 HD
ENDBRANCH  21  22
ENDBRANCH  20  21
ENDBRANCH  18  20
ENDBRANCH  15  16
ENDBRANCH  11  15
TORSDOF 5
ENDMDL
MODEL 4
REMARK VINA RESULT:      -6.2      3.706      6.835
REMARK  5 active torsions:
REMARK  status: ('A' for Active; 'I' for Inactive)
REMARK    1  A    between atoms: N_11  and  C_12 
REMARK    2  A    between atoms: C_12  and  C_13 
REMARK       I    between atoms: C_13  and  N_15 
REMARK    3  A    between atoms: N_15  and  C_16 
REMARK    4  A    between atoms: C_16  and  C_17 
REMARK    5  A    between atoms: C_17  and  C_18 
ROOT
HETATM    1  C   UNL     1     -42.592 -48.852  12.730  1.00  0.00     0.013 C 
HETATM    2  C   UNL     1     -42.148 -47.455  12.279  1.00  0.00     0.019 C 
HETATM    3  C   UNL     1     -42.834 -47.091  10.950  1.00  0.00     0.007 C 
HETATM    4  C   UNL     1     -42.449 -45.691  10.476  1.00  0.00     0.001 C 
HETATM    5  C   UNL     1     -40.938 -45.487  10.419  1.00  0.00     0.003 C 
HETATM    6  C   UNL     1     -40.261 -45.845  11.747  1.00  0.00     0.041 C 
HETATM    7  C   UNL     1     -40.612 -47.271  12.179  1.00  0.00     0.119 C 
HETATM    8  N   UNL     1     -39.970 -48.215  11.287  1.00  0.00    -0.324 N 
HETATM    9  C   UNL     1     -39.009 -48.967  11.914  1.00  0.00     0.326 C 
HETATM   10  O   UNL     1     -38.255 -49.727  11.329  1.00  0.00    -0.247 OA
HETATM   11  N   UNL     1     -39.070 -48.714  13.249  1.00  0.00    -0.259 N 
HETATM   12  C   UNL     1     -39.912 -47.669  13.501  1.00  0.00     0.257 C 
HETATM   13  O   UNL     1     -40.098 -47.160  14.595  1.00  0.00    -0.270 OA
HETATM   14  H   UNL     1     -40.039 -48.227  10.275  1.00  0.00     0.165 HD
ENDROOT
BRANCH  11  15
HETATM   15  C   UNL     1     -38.482 -49.582  14.237  1.00  0.00     0.239 C 
BRANCH  15  16
HETATM   16  C   UNL     1     -39.264 -50.848  14.538  1.00  0.00     0.236 C 
HETATM   17  O   UNL     1     -40.335 -50.800  15.147  1.00  0.00    -0.272 OA
HETATM   18  N   UNL     1     -38.638 -52.047  14.246  1.00  0.00    -0.359 N 
HETATM   19  H   UNL     1     -37.659 -52.033  13.982  1.00  0.00     0.162 HD
BRANCH  18  20
HETATM   20  C   UNL     1     -39.255 -53.249  14.775  1.00  0.00     0.127 C 
BRANCH  20  21
HETATM   21  C   UNL     1     -39.801 -54.220  13.731  1.00  0.00     0.059 C 
BRANCH  21  22
HETATM   22  C   UNL     1     -41.196 -53.783  13.335  1.00  0.00    -0.041 A 
HETATM   23  C   UNL     1     -42.321 -54.335  13.949  1.00  0.00     0.010 A 
HETATM   24  C   UNL     1     -43.593 -54.019  13.472  1.00  0.00     0.018 A 
HETATM   25  C   UNL     1     -43.690 -53.158  12.395  1.00  0.00     0.087 A 
HETATM   26  N   UNL     1     -42.628 -52.592  11.784  1.00  0.00    -0.375 N 
HETATM   27  C   UNL     1     -41.405 -52.920  12.261  1.00  0.00     0.094 A 
ATOM     28  HN  UNL     1     -42.741 -51.948  11.001  1.00  0.00     0.164 HD
ENDBRANCH  21  22
ENDBRANCH  20  21
ENDBRANCH  18  20
ENDBRANCH  15  16
ENDBRANCH  11  15
TORSDOF 5
ENDMDL
MODEL 5
REMARK VINA RESULT:      -6.0      2.830      6.455
REMARK  5 active torsions:
REMARK  status: ('A' for Active; 'I' for Inactive)
REMARK    1  A    between atoms: N_11  and  C_12 
REMARK    2  A    between atoms: C_12  and  C_13 
REMARK       I    between atoms: C_13  and  N_15 
REMARK    3  A    between atoms: N_15  and  C_16 
REMARK    4  A    between atoms: C_16  and  C_17 
REMARK    5  A    between atoms: C_17  and  C_18 
ROOT
HETATM    1  C   UNL     1     -43.026 -49.222  12.442  1.00  0.00     0.013 C 
HETATM    2  C   UNL     1     -42.522 -47.795  12.192  1.00  0.00     0.019 C 
HETATM    3  C   UNL     1     -43.119 -47.250  10.881  1.00  0.00     0.007 C 
HETATM    4  C   UNL     1     -42.673 -45.816  10.606  1.00  0.00     0.001 C 
HETATM    5  C   UNL     1     -41.157 -45.654  10.659  1.00  0.00     0.003 C 
HETATM    6  C   UNL     1     -40.569 -46.192  11.968  1.00  0.00     0.041 C 
HETATM    7  C   UNL     1     -40.979 -47.648  12.202  1.00  0.00     0.119 C 
HETATM    8  N   UNL     1     -40.308 -48.496  11.238  1.00  0.00    -0.324 N 
HETATM    9  C   UNL     1     -39.405 -49.348  11.821  1.00  0.00     0.326 C 
HETATM   10  O   UNL     1     -38.636 -50.054  11.190  1.00  0.00    -0.247 OA
HETATM   11  N   UNL     1     -39.539 -49.257  13.172  1.00  0.00    -0.259 N 
HETATM   12  C   UNL     1     -40.369 -48.225  13.503  1.00  0.00     0.257 C 
HETATM   13  O   UNL     1     -40.607 -47.847  14.638  1.00  0.00    -0.270 OA
HETATM   14  H   UNL     1     -40.317 -48.383  10.230  1.00  0.00     0.165 HD
ENDROOT
BRANCH  11  15
HETATM   15  C   UNL     1     -39.031 -50.256  14.077  1.00  0.00     0.239 C 
BRANCH  15  16
HETATM   16  C   UNL     1     -39.683 -51.623  13.967  1.00  0.00     0.236 C 
HETATM   17  O   UNL     1     -39.085 -52.569  13.450  1.00  0.00    -0.272 OA
HETATM   18  N   UNL     1     -41.019 -51.703  14.319  1.00  0.00    -0.359 N 
HETATM   19  H   UNL     1     -41.528 -50.843  14.496  1.00  0.00     0.162 HD
BRANCH  18  20
HETATM   20  C   UNL     1     -41.715 -52.925  13.963  1.00  0.00     0.127 C 
BRANCH  20  21
HETATM   21  C   UNL     1     -42.983 -53.214  14.763  1.00  0.00     0.059 C 
BRANCH  21  22
HETATM   22  C   UNL     1     -44.166 -52.596  14.049  1.00  0.00    -0.041 A 
HETATM   23  C   UNL     1     -45.075 -51.789  14.735  1.00  0.00     0.010 A 
HETATM   24  C   UNL     1     -46.229 -51.346  14.089  1.00  0.00     0.018 A 
HETATM   25  C   UNL     1     -46.430 -51.728  12.776  1.00  0.00     0.087 A 
HETATM   26  N   UNL     1     -45.569 -52.495  12.075  1.00  0.00    -0.375 N 
HETATM   27  C   UNL     1     -44.461 -52.918  12.726  1.00  0.00     0.094 A 
ATOM     28  HN  UNL     1     -45.745 -52.744  11.101  1.00  0.00     0.164 HD
ENDBRANCH  21  22
ENDBRANCH  20  21
ENDBRANCH  18  20
ENDBRANCH  15  16
ENDBRANCH  11  15
TORSDOF 5
ENDMDL
MODEL 6
REMARK VINA RESULT:      -5.9      1.735      2.425
REMARK  5 active torsions:
REMARK  status: ('A' for Active; 'I' for Inactive)
REMARK    1  A    between atoms: N_11  and  C_12 
REMARK    2  A    between atoms: C_12  and  C_13 
REMARK       I    between atoms: C_13  and  N_15 
REMARK    3  A    between atoms: N_15  and  C_16 
REMARK    4  A    between atoms: C_16  and  C_17 
REMARK    5  A    between atoms: C_17  and  C_18 
ROOT
HETATM    1  C   UNL     1     -43.491 -51.949  16.470  1.00  0.00     0.013 C 
HETATM    2  C   UNL     1     -44.890 -51.325  16.401  1.00  0.00     0.019 C 
HETATM    3  C   UNL     1     -45.531 -51.318  17.801  1.00  0.00     0.007 C 
HETATM    4  C   UNL     1     -46.915 -50.672  17.790  1.00  0.00     0.001 C 
HETATM    5  C   UNL     1     -47.837 -51.282  16.738  1.00  0.00     0.003 C 
HETATM    6  C   UNL     1     -47.196 -51.281  15.345  1.00  0.00     0.041 C 
HETATM    7  C   UNL     1     -45.834 -51.981  15.362  1.00  0.00     0.119 C 
HETATM    8  N   UNL     1     -46.028 -53.402  15.567  1.00  0.00    -0.324 N 
HETATM    9  C   UNL     1     -45.660 -54.149  14.477  1.00  0.00     0.326 C 
HETATM   10  O   UNL     1     -45.859 -55.348  14.380  1.00  0.00    -0.247 OA
HETATM   11  N   UNL     1     -45.051 -53.327  13.580  1.00  0.00    -0.259 N 
HETATM   12  C   UNL     1     -45.182 -52.023  13.958  1.00  0.00     0.257 C 
HETATM   13  O   UNL     1     -44.816 -51.058  13.306  1.00  0.00    -0.270 OA
HETATM   14  H   UNL     1     -46.550 -53.834  16.321  1.00  0.00     0.165 HD
ENDROOT
BRANCH  11  15
HETATM   15  C   UNL     1     -44.219 -53.817  12.510  1.00  0.00     0.239 C 
BRANCH  15  16
HETATM   16  C   UNL     1     -42.754 -53.428  12.598  1.00  0.00     0.236 C 
HETATM   17  O   UNL     1     -42.034 -53.873  13.495  1.00  0.00    -0.272 OA
HETATM   18  N   UNL     1     -42.323 -52.437  11.734  1.00  0.00    -0.359 N 
HETATM   19  H   UNL     1     -43.015 -51.929  11.192  1.00  0.00     0.162 HD
BRANCH  18  20
HETATM   20  C   UNL     1     -41.012 -51.872  11.991  1.00  0.00     0.127 C 
BRANCH  20  21
HETATM   21  C   UNL     1     -40.870 -50.381  11.693  1.00  0.00     0.059 C 
BRANCH  21  22
HETATM   22  C   UNL     1     -39.679 -49.839  12.456  1.00  0.00    -0.041 A 
HETATM   23  C   UNL     1     -38.608 -50.666  12.796  1.00  0.00     0.010 A 
HETATM   24  C   UNL     1     -37.591 -50.178  13.616  1.00  0.00     0.018 A 
HETATM   25  C   UNL     1     -37.685 -48.873  14.064  1.00  0.00     0.087 A 
HETATM   26  N   UNL     1     -38.696 -48.038  13.746  1.00  0.00    -0.375 N 
HETATM   27  C   UNL     1     -39.673 -48.538  12.956  1.00  0.00     0.094 A 
ATOM     28  HN  UNL     1     -38.722 -47.076  14.085  1.00  0.00     0.164 HD
ENDBRANCH  21  22
ENDBRANCH  20  21
ENDBRANCH  18  20
ENDBRANCH  15  16
ENDBRANCH  11  15
TORSDOF 5
ENDMDL
MODEL 7
REMARK VINA RESULT:      -5.9      4.647      8.025
REMARK  5 active torsions:
REMARK  status: ('A' for Active; 'I' for Inactive)
REMARK    1  A    between atoms: N_11  and  C_12 
REMARK    2  A    between atoms: C_12  and  C_13 
REMARK       I    between atoms: C_13  and  N_15 
REMARK    3  A    between atoms: N_15  and  C_16 
REMARK    4  A    between atoms: C_16  and  C_17 
REMARK    5  A    between atoms: C_17  and  C_18 
ROOT
HETATM    1  C   UNL     1     -42.895 -45.170  13.699  1.00  0.00     0.013 C 
HETATM    2  C   UNL     1     -41.845 -44.142  13.261  1.00  0.00     0.019 C 
HETATM    3  C   UNL     1     -42.196 -42.757  13.834  1.00  0.00     0.007 C 
HETATM    4  C   UNL     1     -41.158 -41.704  13.453  1.00  0.00     0.001 C 
HETATM    5  C   UNL     1     -40.898 -41.655  11.951  1.00  0.00     0.003 C 
HETATM    6  C   UNL     1     -40.543 -43.035  11.386  1.00  0.00     0.041 C 
HETATM    7  C   UNL     1     -41.621 -44.067  11.729  1.00  0.00     0.119 C 
HETATM    8  N   UNL     1     -42.824 -43.771  10.978  1.00  0.00    -0.324 N 
HETATM    9  C   UNL     1     -43.124 -44.740  10.055  1.00  0.00     0.326 C 
HETATM   10  O   UNL     1     -44.013 -44.634   9.227  1.00  0.00    -0.247 OA
HETATM   11  N   UNL     1     -42.279 -45.789  10.245  1.00  0.00    -0.259 N 
HETATM   12  C   UNL     1     -41.301 -45.462  11.139  1.00  0.00     0.257 C 
HETATM   13  O   UNL     1     -40.354 -46.170  11.439  1.00  0.00    -0.270 OA
HETATM   14  H   UNL     1     -43.314 -42.883  10.955  1.00  0.00     0.165 HD
ENDROOT
BRANCH  11  15
HETATM   15  C   UNL     1     -42.539 -47.106   9.720  1.00  0.00     0.239 C 
BRANCH  15  16
HETATM   16  C   UNL     1     -42.706 -48.199  10.762  1.00  0.00     0.236 C 
HETATM   17  O   UNL     1     -43.607 -48.139  11.601  1.00  0.00    -0.272 OA
HETATM   18  N   UNL     1     -41.709 -49.157  10.821  1.00  0.00    -0.359 N 
HETATM   19  H   UNL     1     -40.864 -49.014  10.277  1.00  0.00     0.162 HD
BRANCH  18  20
HETATM   20  C   UNL     1     -41.717 -50.035  11.975  1.00  0.00     0.127 C 
BRANCH  20  21
HETATM   21  C   UNL     1     -40.352 -50.308  12.601  1.00  0.00     0.059 C 
BRANCH  21  22
HETATM   22  C   UNL     1     -40.271 -51.770  12.987  1.00  0.00    -0.041 A 
HETATM   23  C   UNL     1     -39.414 -52.198  14.001  1.00  0.00     0.010 A 
HETATM   24  C   UNL     1     -39.256 -53.563  14.243  1.00  0.00     0.018 A 
HETATM   25  C   UNL     1     -39.966 -54.450  13.457  1.00  0.00     0.087 A 
HETATM   26  N   UNL     1     -40.815 -54.076  12.477  1.00  0.00    -0.375 N 
HETATM   27  C   UNL     1     -40.946 -52.748  12.258  1.00  0.00     0.094 A 
ATOM     28  HN  UNL     1     -41.334 -54.763  11.928  1.00  0.00     0.164 HD
ENDBRANCH  21  22
ENDBRANCH  20  21
ENDBRANCH  18  20
ENDBRANCH  15  16
ENDBRANCH  11  15
TORSDOF 5
ENDMDL
MODEL 8
REMARK VINA RESULT:      -5.7      2.854      7.005
REMARK  5 active torsions:
REMARK  status: ('A' for Active; 'I' for Inactive)
REMARK    1  A    between atoms: N_11  and  C_12 
REMARK    2  A    between atoms: C_12  and  C_13 
REMARK       I    between atoms: C_13  and  N_15 
REMARK    3  A    between atoms: N_15  and  C_16 
REMARK    4  A    between atoms: C_16  and  C_17 
REMARK    5  A    between atoms: C_17  and  C_18 
ROOT
HETATM    1  C   UNL     1     -41.580 -47.500  10.507  1.00  0.00     0.013 C 
HETATM    2  C   UNL     1     -41.063 -46.891  11.817  1.00  0.00     0.019 C 
HETATM    3  C   UNL     1     -40.330 -45.568  11.526  1.00  0.00     0.007 C 
HETATM    4  C   UNL     1     -39.826 -44.904  12.806  1.00  0.00     0.001 C 
HETATM    5  C   UNL     1     -38.989 -45.849  13.664  1.00  0.00     0.003 C 
HETATM    6  C   UNL     1     -39.725 -47.161  13.955  1.00  0.00     0.041 C 
HETATM    7  C   UNL     1     -40.176 -47.842  12.660  1.00  0.00     0.119 C 
HETATM    8  N   UNL     1     -39.014 -48.338  11.950  1.00  0.00    -0.324 N 
HETATM    9  C   UNL     1     -38.980 -49.707  11.880  1.00  0.00     0.326 C 
HETATM   10  O   UNL     1     -38.032 -50.340  11.446  1.00  0.00    -0.247 OA
HETATM   11  N   UNL     1     -40.158 -50.190  12.360  1.00  0.00    -0.259 N 
HETATM   12  C   UNL     1     -40.892 -49.188  12.927  1.00  0.00     0.257 C 
HETATM   13  O   UNL     1     -41.950 -49.335  13.517  1.00  0.00    -0.270 OA
HETATM   14  H   UNL     1     -38.196 -47.799  11.688  1.00  0.00     0.165 HD
ENDROOT
BRANCH  11  15
HETATM   15  C   UNL     1     -40.618 -51.530  12.098  1.00  0.00     0.239 C 
BRANCH  15  16
HETATM   16  C   UNL     1     -40.493 -52.498  13.261  1.00  0.00     0.236 C 
HETATM   17  O   UNL     1     -39.577 -53.322  13.302  1.00  0.00    -0.272 OA
HETATM   18  N   UNL     1     -41.539 -52.516  14.168  1.00  0.00    -0.359 N 
HETATM   19  H   UNL     1     -42.383 -51.999  13.947  1.00  0.00     0.162 HD
BRANCH  18  20
HETATM   20  C   UNL     1     -41.560 -53.613  15.117  1.00  0.00     0.127 C 
BRANCH  20  21
HETATM   21  C   UNL     1     -42.425 -54.807  14.721  1.00  0.00     0.059 C 
BRANCH  21  22
HETATM   22  C   UNL     1     -43.880 -54.390  14.747  1.00  0.00    -0.041 A 
HETATM   23  C   UNL     1     -44.525 -54.115  15.954  1.00  0.00     0.010 A 
HETATM   24  C   UNL     1     -45.898 -53.869  15.963  1.00  0.00     0.018 A 
HETATM   25  C   UNL     1     -46.575 -53.906  14.758  1.00  0.00     0.087 A 
HETATM   26  N   UNL     1     -45.985 -54.155  13.570  1.00  0.00    -0.375 N 
HETATM   27  C   UNL     1     -44.655 -54.397  13.589  1.00  0.00     0.094 A 
ATOM     28  HN  UNL     1     -46.517 -54.159  12.699  1.00  0.00     0.164 HD
ENDBRANCH  21  22
ENDBRANCH  20  21
ENDBRANCH  18  20
ENDBRANCH  15  16
ENDBRANCH  11  15
TORSDOF 5
ENDMDL
MODEL 9
REMARK VINA RESULT:      -5.7      3.842      7.884
REMARK  5 active torsions:
REMARK  status: ('A' for Active; 'I' for Inactive)
REMARK    1  A    between atoms: N_11  and  C_12 
REMARK    2  A    between atoms: C_12  and  C_13 
REMARK       I    between atoms: C_13  and  N_15 
REMARK    3  A    between atoms: N_15  and  C_16 
REMARK    4  A    between atoms: C_16  and  C_17 
REMARK    5  A    between atoms: C_17  and  C_18 
ROOT
HETATM    1  C   UNL     1     -42.753 -45.260  13.881  1.00  0.00     0.013 C 
HETATM    2  C   UNL     1     -41.980 -44.117  13.210  1.00  0.00     0.019 C 
HETATM    3  C   UNL     1     -42.865 -42.860  13.134  1.00  0.00     0.007 C 
HETATM    4  C   UNL     1     -42.126 -41.681  12.504  1.00  0.00     0.001 C 
HETATM    5  C   UNL     1     -41.507 -42.032  11.154  1.00  0.00     0.003 C 
HETATM    6  C   UNL     1     -40.622 -43.281  11.238  1.00  0.00     0.041 C 
HETATM    7  C   UNL     1     -41.394 -44.469  11.819  1.00  0.00     0.119 C 
HETATM    8  N   UNL     1     -42.390 -44.908  10.862  1.00  0.00    -0.324 N 
HETATM    9  C   UNL     1     -42.134 -46.163  10.371  1.00  0.00     0.326 C 
HETATM   10  O   UNL     1     -42.764 -46.675   9.461  1.00  0.00    -0.247 OA
HETATM   11  N   UNL     1     -41.096 -46.695  11.072  1.00  0.00    -0.259 N 
HETATM   12  C   UNL     1     -40.531 -45.752  11.881  1.00  0.00     0.257 C 
HETATM   13  O   UNL     1     -39.530 -45.913  12.560  1.00  0.00    -0.270 OA
HETATM   14  H   UNL     1     -43.097 -44.329  10.424  1.00  0.00     0.165 HD
ENDROOT
BRANCH  11  15
HETATM   15  C   UNL     1     -40.805 -48.106  11.087  1.00  0.00     0.239 C 
BRANCH  15  16
HETATM   16  C   UNL     1     -41.484 -48.898  12.190  1.00  0.00     0.236 C 
HETATM   17  O   UNL     1     -41.115 -48.794  13.362  1.00  0.00    -0.272 OA
HETATM   18  N   UNL     1     -42.408 -49.848  11.792  1.00  0.00    -0.359 N 
HETATM   19  H   UNL     1     -42.487 -50.066  10.805  1.00  0.00     0.162 HD
BRANCH  18  20
HETATM   20  C   UNL     1     -42.855 -50.786  12.805  1.00  0.00     0.127 C 
BRANCH  20  21
HETATM   21  C   UNL     1     -42.544 -52.253  12.522  1.00  0.00     0.059 C 
BRANCH  21  22
HETATM   22  C   UNL     1     -43.631 -53.113  13.133  1.00  0.00    -0.041 A 
HETATM   23  C   UNL     1     -43.314 -54.270  13.846  1.00  0.00     0.010 A 
HETATM   24  C   UNL     1     -44.335 -55.116  14.278  1.00  0.00     0.018 A 
HETATM   25  C   UNL     1     -45.639 -54.770  13.980  1.00  0.00     0.087 A 
HETATM   26  N   UNL     1     -45.987 -53.654  13.305  1.00  0.00    -0.375 N 
HETATM   27  C   UNL     1     -44.978 -52.853  12.891  1.00  0.00     0.094 A 
ATOM     28  HN  UNL     1     -46.963 -53.425  13.117  1.00  0.00     0.164 HD
ENDBRANCH  21  22
ENDBRANCH  20  21
ENDBRANCH  18  20
ENDBRANCH  15  16
ENDBRANCH  11  15
TORSDOF 5
ENDMDL
