MODEL 1
REMARK VINA RESULT:      -6.5      0.000      0.000
REMARK  4 active torsions:
REMARK  status: ('A' for Active; 'I' for Inactive)
REMARK    1  A    between atoms: C_8  and  C_9 
REMARK    2  A    between atoms: C_9  and  C_10 
REMARK    3  A    between atoms: C_10  and  N_11 
REMARK       I    between atoms: N_11  and  C_12 
REMARK       I    between atoms: C_12  and  N_14 
REMARK    4  A    between atoms: N_14  and  C_15 
ROOT
HETATM    1  N   UNL     1     -41.566 -51.256  12.073  1.00  0.00    -0.343 N 
HETATM    2  C   UNL     1     -41.062 -50.180  11.371  1.00  0.00     0.316 C 
HETATM    3  O   UNL     1     -39.875 -50.033  11.117  1.00  0.00    -0.247 OA
HETATM    4  N   UNL     1     -42.037 -49.275  11.039  1.00  0.00    -0.336 N 
HETATM    5  H   UNL     1     -42.371 -51.020  12.637  1.00  0.00     0.164 HD
HETATM    6  H   UNL     1     -42.888 -49.722  10.731  1.00  0.00     0.164 HD
ENDROOT
BRANCH   1   7
HETATM    7  C   UNL     1     -40.596 -52.183  12.642  1.00  0.00     0.129 C 
BRANCH   7   8
HETATM    8  C   UNL     1     -40.993 -53.658  12.532  1.00  0.00     0.059 C 
BRANCH   8   9
HETATM    9  C   UNL     1     -41.761 -54.120  13.756  1.00  0.00    -0.048 A 
HETATM   10  C   UNL     1     -43.164 -54.212  13.807  1.00  0.00    -0.040 A 
HETATM   11  C   UNL     1     -44.056 -53.887  12.646  1.00  0.00     0.050 C 
HETATM   12  C   UNL     1     -43.744 -54.617  15.012  1.00  0.00     0.094 A 
HETATM   13  N   UNL     1     -43.056 -54.923  16.133  1.00  0.00    -0.375 N 
HETATM   14  C   UNL     1     -41.716 -54.819  16.061  1.00  0.00     0.088 A 
ATOM     15  HN  UNL     1     -43.527 -55.218  16.989  1.00  0.00     0.164 HD
HETATM   16  C   UNL     1     -41.037 -54.428  14.918  1.00  0.00     0.024 A 
ENDBRANCH   8   9
ENDBRANCH   7   8
ENDBRANCH   1   7
BRANCH   4  17
HETATM   17  C   UNL     1     -41.660 -48.028  10.370  1.00  0.00     0.122 C 
HETATM   18  C   UNL     1     -41.080 -46.998  11.338  1.00  0.00     0.065 C 
HETATM   19  C   UNL     1     -41.479 -45.634  10.768  1.00  0.00     0.057 C 
HETATM   20  C   UNL     1     -42.178 -44.764  11.817  1.00  0.00     0.045 C 
HETATM   21  C   UNL     1     -40.278 -44.866  10.212  1.00  0.00     0.045 C 
HETATM   22  O   UNL     1     -42.401 -45.875   9.689  1.00  0.00    -0.369 OA
HETATM   23  C   UNL     1     -42.818 -47.256   9.710  1.00  0.00     0.075 C 
HETATM   24  C   UNL     1     -43.050 -47.698   8.265  1.00  0.00     0.048 C 
HETATM   25  C   UNL     1     -44.139 -47.340  10.484  1.00  0.00     0.048 C 
ENDBRANCH   4  17
TORSDOF 4
ENDMDL
MODEL 2
REMARK VINA RESULT:      -6.4      2.593      3.779
REMARK  4 active torsions:
REMARK  status: ('A' for Active; 'I' for Inactive)
REMARK    1  A    between atoms: C_8  and  C_9 
REMARK    2  A    between atoms: C_9  and  C_10 
REMARK    3  A    between atoms: C_10  and  N_11 
REMARK       I    between atoms: N_11  and  C_12 
REMARK       I    between atoms: C_12  and  N_14 
REMARK    4  A    between atoms: N_14  and  C_15 
ROOT
HETATM    1  N   UNL     1     -42.979 -52.745  12.152  1.00  0.00    -0.343 N 
HETATM    2  C   UNL     1     -42.690 -51.585  12.842  1.00  0.00     0.316 C 
HETATM    3  O   UNL     1     -42.698 -51.504  14.062  1.00  0.00    -0.247 OA
HETATM    4  N   UNL     1     -42.445 -50.529  12.003  1.00  0.00    -0.336 N 
HETATM    5  H   UNL     1     -43.433 -52.576  11.265  1.00  0.00     0.164 HD
HETATM    6  H   UNL     1     -41.883 -50.793  11.206  1.00  0.00     0.164 HD
ENDROOT
BRANCH   1   7
HETATM    7  C   UNL     1     -43.440 -53.882  12.938  1.00  0.00     0.129 C 
BRANCH   7   8
HETATM    8  C   UNL     1     -44.955 -54.099  12.906  1.00  0.00     0.059 C 
BRANCH   8   9
HETATM    9  C   UNL     1     -45.648 -53.343  14.024  1.00  0.00    -0.048 A 
HETATM   10  C   UNL     1     -46.374 -52.153  13.827  1.00  0.00    -0.040 A 
HETATM   11  C   UNL     1     -46.563 -51.513  12.485  1.00  0.00     0.050 C 
HETATM   12  C   UNL     1     -46.931 -51.541  14.953  1.00  0.00     0.094 A 
HETATM   13  N   UNL     1     -46.823 -52.005  16.216  1.00  0.00    -0.375 N 
HETATM   14  C   UNL     1     -46.117 -53.139  16.378  1.00  0.00     0.088 A 
ATOM     15  HN  UNL     1     -47.252 -51.522  17.005  1.00  0.00     0.164 HD
HETATM   16  C   UNL     1     -45.523 -53.830  15.334  1.00  0.00     0.024 A 
ENDBRANCH   8   9
ENDBRANCH   7   8
ENDBRANCH   1   7
BRANCH   4  17
HETATM   17  C   UNL     1     -42.212 -49.200  12.572  1.00  0.00     0.122 C 
HETATM   18  C   UNL     1     -42.811 -48.085  11.716  1.00  0.00     0.065 C 
HETATM   19  C   UNL     1     -41.889 -46.879  11.916  1.00  0.00     0.057 C 
HETATM   20  C   UNL     1     -41.416 -46.300  10.579  1.00  0.00     0.045 C 
HETATM   21  C   UNL     1     -42.559 -45.767  12.725  1.00  0.00     0.045 C 
HETATM   22  O   UNL     1     -40.736 -47.338  12.647  1.00  0.00    -0.369 OA
HETATM   23  C   UNL     1     -40.735 -48.780  12.687  1.00  0.00     0.075 C 
HETATM   24  C   UNL     1     -40.119 -49.212  14.018  1.00  0.00     0.048 C 
HETATM   25  C   UNL     1     -39.856 -49.285  11.535  1.00  0.00     0.048 C 
ENDBRANCH   4  17
TORSDOF 4
ENDMDL
MODEL 3
REMARK VINA RESULT:      -6.3      3.835      7.015
REMARK  4 active torsions:
REMARK  status: ('A' for Active; 'I' for Inactive)
REMARK    1  A    between atoms: C_8  and  C_9 
REMARK    2  A    between atoms: C_9  and  C_10 
REMARK    3  A    between atoms: C_10  and  N_11 
REMARK       I    between atoms: N_11  and  C_12 
REMARK       I    between atoms: C_12  and  N_14 
REMARK    4  A    between atoms: N_14  and  C_15 
ROOT
HETATM    1  N   UNL     1     -40.294 -52.135  15.799  1.00  0.00    -0.343 N 
HETATM    2  C   UNL     1     -41.258 -52.496  14.881  1.00  0.00     0.316 C 
HETATM    3  O   UNL     1     -41.002 -52.945  13.772  1.00  0.00    -0.247 OA
HETATM    4  N   UNL     1     -42.527 -52.248  15.335  1.00  0.00    -0.336 N 
HETATM    5  H   UNL     1     -40.572 -51.356  16.381  1.00  0.00     0.164 HD
HETATM    6  H   UNL     1     -42.643 -52.494  16.307  1.00  0.00     0.164 HD
ENDROOT
BRANCH   1   7
HETATM    7  C   UNL     1     -38.908 -52.177  15.352  1.00  0.00     0.129 C 
BRANCH   7   8
HETATM    8  C   UNL     1     -38.275 -50.801  15.126  1.00  0.00     0.059 C 
BRANCH   8   9
HETATM    9  C   UNL     1     -38.313 -50.405  13.662  1.00  0.00    -0.048 A 
HETATM   10  C   UNL     1     -39.322 -49.604  13.097  1.00  0.00    -0.040 A 
HETATM   11  C   UNL     1     -40.461 -49.031  13.886  1.00  0.00     0.050 C 
HETATM   12  C   UNL     1     -39.254 -49.347  11.725  1.00  0.00     0.094 A 
HETATM   13  N   UNL     1     -38.292 -49.814  10.900  1.00  0.00    -0.375 N 
HETATM   14  C   UNL     1     -37.343 -50.585  11.464  1.00  0.00     0.088 A 
ATOM     15  HN  UNL     1     -38.284 -49.595   9.904  1.00  0.00     0.164 HD
HETATM   16  C   UNL     1     -37.313 -50.902  12.813  1.00  0.00     0.024 A 
ENDBRANCH   8   9
ENDBRANCH   7   8
ENDBRANCH   1   7
BRANCH   4  17
HETATM   17  C   UNL     1     -43.667 -52.489  14.447  1.00  0.00     0.122 C 
HETATM   18  C   UNL     1     -44.615 -51.293  14.376  1.00  0.00     0.065 C 
HETATM   19  C   UNL     1     -46.006 -51.891  14.148  1.00  0.00     0.057 C 
HETATM   20  C   UNL     1     -47.020 -51.374  15.174  1.00  0.00     0.045 C 
HETATM   21  C   UNL     1     -46.537 -51.600  12.743  1.00  0.00     0.045 C 
HETATM   22  O   UNL     1     -45.890 -53.317  14.302  1.00  0.00    -0.369 OA
HETATM   23  C   UNL     1     -44.602 -53.637  14.870  1.00  0.00     0.075 C 
HETATM   24  C   UNL     1     -44.156 -54.981  14.292  1.00  0.00     0.048 C 
HETATM   25  C   UNL     1     -44.774 -53.770  16.388  1.00  0.00     0.048 C 
ENDBRANCH   4  17
TORSDOF 4
ENDMDL
MODEL 4
REMARK VINA RESULT:      -6.3      2.724      8.047
REMARK  4 active torsions:
REMARK  status: ('A' for Active; 'I' for Inactive)
REMARK    1  A    between atoms: C_8  and  C_9 
REMARK    2  A    between atoms: C_9  and  C_10 
REMARK    3  A    between atoms: C_10  and  N_11 
REMARK       I    between atoms: N_11  and  C_12 
REMARK       I    between atoms: C_12  and  N_14 
REMARK    4  A    between atoms: N_14  and  C_15 
ROOT
HETATM    1  N   UNL     1     -41.950 -49.555  11.309  1.00  0.00    -0.343 N 
HETATM    2  C   UNL     1     -41.964 -50.287  12.479  1.00  0.00     0.316 C 
HETATM    3  O   UNL     1     -41.128 -50.166  13.364  1.00  0.00    -0.247 OA
HETATM    4  N   UNL     1     -42.991 -51.195  12.511  1.00  0.00    -0.336 N 
HETATM    5  H   UNL     1     -42.310 -50.068  10.516  1.00  0.00     0.164 HD
HETATM    6  H   UNL     1     -43.852 -50.815  12.144  1.00  0.00     0.164 HD
ENDROOT
BRANCH   1   7
HETATM    7  C   UNL     1     -40.795 -48.695  11.084  1.00  0.00     0.129 C 
BRANCH   7   8
HETATM    8  C   UNL     1     -41.143 -47.232  10.801  1.00  0.00     0.059 C 
BRANCH   8   9
HETATM    9  C   UNL     1     -40.514 -46.303  11.823  1.00  0.00    -0.048 A 
HETATM   10  C   UNL     1     -39.762 -45.164  11.481  1.00  0.00    -0.040 A 
HETATM   11  C   UNL     1     -39.521 -44.726  10.067  1.00  0.00     0.050 C 
HETATM   12  C   UNL     1     -39.207 -44.417  12.524  1.00  0.00     0.094 A 
HETATM   13  N   UNL     1     -39.337 -44.710  13.836  1.00  0.00    -0.375 N 
HETATM   14  C   UNL     1     -40.053 -45.809  14.135  1.00  0.00     0.088 A 
ATOM     15  HN  UNL     1     -38.915 -44.130  14.560  1.00  0.00     0.164 HD
HETATM   16  C   UNL     1     -40.648 -46.621  13.182  1.00  0.00     0.024 A 
ENDBRANCH   8   9
ENDBRANCH   7   8
ENDBRANCH   1   7
BRANCH   4  17
HETATM   17  C   UNL     1     -43.098 -52.118  13.642  1.00  0.00     0.122 C 
HETATM   18  C   UNL     1     -43.257 -53.571  13.199  1.00  0.00     0.065 C 
HETATM   19  C   UNL     1     -44.110 -54.236  14.283  1.00  0.00     0.057 C 
HETATM   20  C   UNL     1     -45.322 -54.957  13.686  1.00  0.00     0.045 C 
HETATM   21  C   UNL     1     -43.307 -55.233  15.120  1.00  0.00     0.045 C 
HETATM   22  O   UNL     1     -44.585 -53.192  15.153  1.00  0.00    -0.369 OA
HETATM   23  C   UNL     1     -44.322 -51.907  14.553  1.00  0.00     0.075 C 
HETATM   24  C   UNL     1     -44.034 -50.914  15.679  1.00  0.00     0.048 C 
HETATM   25  C   UNL     1     -45.585 -51.468  13.801  1.00  0.00     0.048 C 
ENDBRANCH   4  17
TORSDOF 4
ENDMDL
MODEL 5
REMARK VINA RESULT:      -6.2      3.060      7.409
REMARK  4 active torsions:
REMARK  status: ('A' for Active; 'I' for Inactive)
REMARK    1  A    between atoms: C_8  and  C_9 
REMARK    2  A    between atoms: C_9  and  C_10 
REMARK    3  A    between atoms: C_10  and  N_11 
REMARK       I    between atoms: N_11  and  C_12 
REMARK       I    between atoms: C_12  and  N_14 
REMARK    4  A    between atoms: N_14  and  C_15 
ROOT
HETATM    1  N   UNL     1     -43.323 -48.764  11.688  1.00  0.00    -0.343 N 
HETATM    2  C   UNL     1     -43.270 -49.519  12.842  1.00  0.00     0.316 C 
HETATM    3  O   UNL     1     -42.735 -49.142  13.875  1.00  0.00    -0.247 OA
HETATM    4  N   UNL     1     -43.841 -50.755  12.679  1.00  0.00    -0.336 N 
HETATM    5  H   UNL     1     -43.294 -49.322  10.847  1.00  0.00     0.164 HD
HETATM    6  H   UNL     1     -44.695 -50.717  12.142  1.00  0.00     0.164 HD
ENDROOT
BRANCH   1   7
HETATM    7  C   UNL     1     -42.581 -47.510  11.688  1.00  0.00     0.129 C 
BRANCH   7   8
HETATM    8  C   UNL     1     -41.194 -47.596  11.044  1.00  0.00     0.059 C 
BRANCH   8   9
HETATM    9  C   UNL     1     -40.095 -47.608  12.090  1.00  0.00    -0.048 A 
HETATM   10  C   UNL     1     -39.349 -48.753  12.423  1.00  0.00    -0.040 A 
HETATM   11  C   UNL     1     -39.541 -50.086  11.763  1.00  0.00     0.050 C 
HETATM   12  C   UNL     1     -38.391 -48.632  13.433  1.00  0.00     0.094 A 
HETATM   13  N   UNL     1     -38.130 -47.495  14.115  1.00  0.00    -0.375 N 
HETATM   14  C   UNL     1     -38.864 -46.417  13.784  1.00  0.00     0.088 A 
ATOM     15  HN  UNL     1     -37.417 -47.457  14.843  1.00  0.00     0.164 HD
HETATM   16  C   UNL     1     -39.838 -46.424  12.798  1.00  0.00     0.024 A 
ENDBRANCH   8   9
ENDBRANCH   7   8
ENDBRANCH   1   7
BRANCH   4  17
HETATM   17  C   UNL     1     -43.789 -51.720  13.780  1.00  0.00     0.122 C 
HETATM   18  C   UNL     1     -43.604 -53.155  13.291  1.00  0.00     0.065 C 
HETATM   19  C   UNL     1     -44.334 -54.030  14.313  1.00  0.00     0.057 C 
HETATM   20  C   UNL     1     -45.331 -54.978  13.638  1.00  0.00     0.045 C 
HETATM   21  C   UNL     1     -43.367 -54.857  15.162  1.00  0.00     0.045 C 
HETATM   22  O   UNL     1     -45.065 -53.149  15.186  1.00  0.00    -0.369 OA
HETATM   23  C   UNL     1     -45.067 -51.817  14.634  1.00  0.00     0.075 C 
HETATM   24  C   UNL     1     -45.053 -50.827  15.799  1.00  0.00     0.048 C 
HETATM   25  C   UNL     1     -46.363 -51.638  13.833  1.00  0.00     0.048 C 
ENDBRANCH   4  17
TORSDOF 4
ENDMDL
MODEL 6
REMARK VINA RESULT:      -6.2      2.597      8.159
REMARK  4 active torsions:
REMARK  status: ('A' for Active; 'I' for Inactive)
REMARK    1  A    between atoms: C_8  and  C_9 
REMARK    2  A    between atoms: C_9  and  C_10 
REMARK    3  A    between atoms: C_10  and  N_11 
REMARK       I    between atoms: N_11  and  C_12 
REMARK       I    between atoms: C_12  and  N_14 
REMARK    4  A    between atoms: N_14  and  C_15 
ROOT
HETATM    1  N   UNL     1     -42.351 -49.466  11.505  1.00  0.00    -0.343 N 
HETATM    2  C   UNL     1     -42.264 -50.304  12.598  1.00  0.00     0.316 C 
HETATM    3  O   UNL     1     -41.228 -50.503  13.218  1.00  0.00    -0.247 OA
HETATM    4  N   UNL     1     -43.455 -50.923  12.874  1.00  0.00    -0.336 N 
HETATM    5  H   UNL     1     -43.030 -49.774  10.822  1.00  0.00     0.164 HD
HETATM    6  H   UNL     1     -44.244 -50.299  12.781  1.00  0.00     0.164 HD
ENDROOT
BRANCH   1   7
HETATM    7  C   UNL     1     -41.104 -48.902  11.006  1.00  0.00     0.129 C 
BRANCH   7   8
HETATM    8  C   UNL     1     -41.102 -47.376  10.890  1.00  0.00     0.059 C 
BRANCH   8   9
HETATM    9  C   UNL     1     -42.276 -46.880  10.067  1.00  0.00    -0.048 A 
HETATM   10  C   UNL     1     -42.848 -45.603  10.217  1.00  0.00    -0.040 A 
HETATM   11  C   UNL     1     -42.344 -44.580  11.190  1.00  0.00     0.050 C 
HETATM   12  C   UNL     1     -43.951 -45.289   9.418  1.00  0.00     0.094 A 
HETATM   13  N   UNL     1     -44.510 -46.122   8.515  1.00  0.00    -0.375 N 
HETATM   14  C   UNL     1     -43.950 -47.340   8.397  1.00  0.00     0.088 A 
ATOM     15  HN  UNL     1     -45.314 -45.844   7.952  1.00  0.00     0.164 HD
HETATM   16  C   UNL     1     -42.854 -47.756   9.137  1.00  0.00     0.024 A 
ENDBRANCH   8   9
ENDBRANCH   7   8
ENDBRANCH   1   7
BRANCH   4  17
HETATM   17  C   UNL     1     -43.516 -51.917  13.947  1.00  0.00     0.122 C 
HETATM   18  C   UNL     1     -43.458 -53.351  13.421  1.00  0.00     0.065 C 
HETATM   19  C   UNL     1     -44.286 -54.179  14.407  1.00  0.00     0.057 C 
HETATM   20  C   UNL     1     -45.355 -55.009  13.689  1.00  0.00     0.045 C 
HETATM   21  C   UNL     1     -43.418 -55.116  15.247  1.00  0.00     0.045 C 
HETATM   22  O   UNL     1     -44.946 -53.256  15.293  1.00  0.00    -0.369 OA
HETATM   23  C   UNL     1     -44.812 -51.915  14.778  1.00  0.00     0.075 C 
HETATM   24  C   UNL     1     -44.726 -50.962  15.971  1.00  0.00     0.048 C 
HETATM   25  C   UNL     1     -46.070 -51.593  13.962  1.00  0.00     0.048 C 
ENDBRANCH   4  17
TORSDOF 4
ENDMDL
MODEL 7
REMARK VINA RESULT:      -6.1      3.084      7.791
REMARK  4 active torsions:
REMARK  status: ('A' for Active; 'I' for Inactive)
REMARK    1  A    between atoms: C_8  and  C_9 
REMARK    2  A    between atoms: C_9  and  C_10 
REMARK    3  A    between atoms: C_10  and  N_11 
REMARK       I    between atoms: N_11  and  C_12 
REMARK       I    between atoms: C_12  and  N_14 
REMARK    4  A    between atoms: N_14  and  C_15 
ROOT
HETATM    1  N   UNL     1     -41.703 -50.162  12.431  1.00  0.00    -0.343 N 
HETATM    2  C   UNL     1     -42.965 -50.001  12.966  1.00  0.00     0.316 C 
HETATM    3  O   UNL     1     -43.367 -48.951  13.448  1.00  0.00    -0.247 OA
HETATM    4  N   UNL     1     -43.693 -51.162  12.938  1.00  0.00    -0.336 N 
HETATM    5  H   UNL     1     -41.334 -51.094  12.560  1.00  0.00     0.164 HD
HETATM    6  H   UNL     1     -43.574 -51.670  12.074  1.00  0.00     0.164 HD
ENDROOT
BRANCH   1   7
HETATM    7  C   UNL     1     -40.777 -49.047  12.580  1.00  0.00     0.129 C 
BRANCH   7   8
HETATM    8  C   UNL     1     -40.366 -48.388  11.261  1.00  0.00     0.059 C 
BRANCH   8   9
HETATM    9  C   UNL     1     -41.364 -47.328  10.834  1.00  0.00    -0.048 A 
HETATM   10  C   UNL     1     -41.285 -45.979  11.229  1.00  0.00    -0.040 A 
HETATM   11  C   UNL     1     -40.191 -45.435  12.097  1.00  0.00     0.050 C 
HETATM   12  C   UNL     1     -42.294 -45.116  10.793  1.00  0.00     0.094 A 
HETATM   13  N   UNL     1     -43.341 -45.482  10.022  1.00  0.00    -0.375 N 
HETATM   14  C   UNL     1     -43.397 -46.778   9.665  1.00  0.00     0.088 A 
ATOM     15  HN  UNL     1     -44.050 -44.812   9.726  1.00  0.00     0.164 HD
HETATM   16  C   UNL     1     -42.451 -47.720  10.039  1.00  0.00     0.024 A 
ENDBRANCH   8   9
ENDBRANCH   7   8
ENDBRANCH   1   7
BRANCH   4  17
HETATM   17  C   UNL     1     -45.023 -51.190  13.550  1.00  0.00     0.122 C 
HETATM   18  C   UNL     1     -44.967 -51.415  15.061  1.00  0.00     0.065 C 
HETATM   19  C   UNL     1     -46.245 -52.184  15.405  1.00  0.00     0.057 C 
HETATM   20  C   UNL     1     -45.941 -53.457  16.202  1.00  0.00     0.045 C 
HETATM   21  C   UNL     1     -47.237 -51.333  16.197  1.00  0.00     0.045 C 
HETATM   22  O   UNL     1     -46.864 -52.563  14.162  1.00  0.00    -0.369 OA
HETATM   23  C   UNL     1     -45.945 -52.328  13.075  1.00  0.00     0.075 C 
HETATM   24  C   UNL     1     -46.765 -51.925  11.848  1.00  0.00     0.048 C 
HETATM   25  C   UNL     1     -45.210 -53.641  12.783  1.00  0.00     0.048 C 
ENDBRANCH   4  17
TORSDOF 4
ENDMDL
MODEL 8
REMARK VINA RESULT:      -6.0      3.549      4.818
REMARK  4 active torsions:
REMARK  status: ('A' for Active; 'I' for Inactive)
REMARK    1  A    between atoms: C_8  and  C_9 
REMARK    2  A    between atoms: C_9  and  C_10 
REMARK    3  A    between atoms: C_10  and  N_11 
REMARK       I    between atoms: N_11  and  C_12 
REMARK       I    between atoms: C_12  and  N_14 
REMARK    4  A    between atoms: N_14  and  C_15 
ROOT
HETATM    1  N   UNL     1     -42.289 -52.087  12.029  1.00  0.00    -0.343 N 
HETATM    2  C   UNL     1     -41.042 -52.007  12.614  1.00  0.00     0.316 C 
HETATM    3  O   UNL     1     -40.592 -52.859  13.368  1.00  0.00    -0.247 OA
HETATM    4  N   UNL     1     -40.391 -50.844  12.293  1.00  0.00    -0.336 N 
HETATM    5  H   UNL     1     -42.723 -51.184  11.896  1.00  0.00     0.164 HD
HETATM    6  H   UNL     1     -40.507 -50.594  11.322  1.00  0.00     0.164 HD
ENDROOT
BRANCH   1   7
HETATM    7  C   UNL     1     -43.145 -53.188  12.451  1.00  0.00     0.129 C 
BRANCH   7   8
HETATM    8  C   UNL     1     -44.620 -53.020  12.076  1.00  0.00     0.059 C 
BRANCH   8   9
HETATM    9  C   UNL     1     -45.490 -52.840  13.306  1.00  0.00    -0.048 A 
HETATM   10  C   UNL     1     -45.930 -53.906  14.112  1.00  0.00    -0.040 A 
HETATM   11  C   UNL     1     -45.566 -55.339  13.859  1.00  0.00     0.050 C 
HETATM   12  C   UNL     1     -46.758 -53.601  15.195  1.00  0.00     0.094 A 
HETATM   13  N   UNL     1     -47.170 -52.357  15.523  1.00  0.00    -0.375 N 
HETATM   14  C   UNL     1     -46.743 -51.357  14.731  1.00  0.00     0.088 A 
ATOM     15  HN  UNL     1     -47.773 -52.186  16.328  1.00  0.00     0.164 HD
HETATM   16  C   UNL     1     -45.918 -51.545  13.633  1.00  0.00     0.024 A 
ENDBRANCH   8   9
ENDBRANCH   7   8
ENDBRANCH   1   7
BRANCH   4  17
HETATM   17  C   UNL     1     -39.091 -50.557  12.903  1.00  0.00     0.122 C 
HETATM   18  C   UNL     1     -39.215 -50.103  14.357  1.00  0.00     0.065 C 
HETATM   19  C   UNL     1     -38.047 -49.138  14.582  1.00  0.00     0.057 C 
HETATM   20  C   UNL     1     -38.521 -47.801  15.159  1.00  0.00     0.045 C 
HETATM   21  C   UNL     1     -36.983 -49.725  15.510  1.00  0.00     0.045 C 
HETATM   22  O   UNL     1     -37.443 -48.891  13.299  1.00  0.00    -0.369 OA
HETATM   23  C   UNL     1     -38.297 -49.407  12.257  1.00  0.00     0.075 C 
HETATM   24  C   UNL     1     -37.402 -49.899  11.118  1.00  0.00     0.048 C 
HETATM   25  C   UNL     1     -39.175 -48.256  11.750  1.00  0.00     0.048 C 
ENDBRANCH   4  17
TORSDOF 4
ENDMDL
MODEL 9
REMARK VINA RESULT:      -6.0      3.254      6.509
REMARK  4 active torsions:
REMARK  status: ('A' for Active; 'I' for Inactive)
REMARK    1  A    between atoms: C_8  and  C_9 
REMARK    2  A    between atoms: C_9  and  C_10 
REMARK    3  A    between atoms: C_10  and  N_11 
REMARK       I    between atoms: N_11  and  C_12 
REMARK       I    between atoms: C_12  and  N_14 
REMARK    4  A    between atoms: N_14  and  C_15 
ROOT
HETATM    1  N   UNL     1     -41.773 -49.477  11.264  1.00  0.00    -0.343 N 
HETATM    2  C   UNL     1     -42.827 -49.394  12.151  1.00  0.00     0.316 C 
HETATM    3  O   UNL     1     -43.230 -48.341  12.627  1.00  0.00    -0.247 OA
HETATM    4  N   UNL     1     -43.334 -50.626  12.472  1.00  0.00    -0.336 N 
HETATM    5  H   UNL     1     -41.238 -50.329  11.362  1.00  0.00     0.164 HD
HETATM    6  H   UNL     1     -43.399 -51.236  11.670  1.00  0.00     0.164 HD
ENDROOT
BRANCH   1   7
HETATM    7  C   UNL     1     -41.036 -48.248  10.999  1.00  0.00     0.129 C 
BRANCH   7   8
HETATM    8  C   UNL     1     -39.995 -47.894  12.064  1.00  0.00     0.059 C 
BRANCH   8   9
HETATM    9  C   UNL     1     -39.108 -49.081  12.391  1.00  0.00    -0.048 A 
HETATM   10  C   UNL     1     -39.153 -49.773  13.615  1.00  0.00    -0.040 A 
HETATM   11  C   UNL     1     -40.101 -49.431  14.724  1.00  0.00     0.050 C 
HETATM   12  C   UNL     1     -38.252 -50.827  13.797  1.00  0.00     0.094 A 
HETATM   13  N   UNL     1     -37.340 -51.227  12.885  1.00  0.00    -0.375 N 
HETATM   14  C   UNL     1     -37.312 -50.542  11.727  1.00  0.00     0.088 A 
ATOM     15  HN  UNL     1     -36.706 -52.005  13.065  1.00  0.00     0.164 HD
HETATM   16  C   UNL     1     -38.159 -49.483  11.440  1.00  0.00     0.024 A 
ENDBRANCH   8   9
ENDBRANCH   7   8
ENDBRANCH   1   7
BRANCH   4  17
HETATM   17  C   UNL     1     -44.398 -50.726  13.473  1.00  0.00     0.122 C 
HETATM   18  C   UNL     1     -43.855 -50.926  14.887  1.00  0.00     0.065 C 
HETATM   19  C   UNL     1     -44.909 -51.767  15.612  1.00  0.00     0.057 C 
HETATM   20  C   UNL     1     -44.292 -53.009  16.264  1.00  0.00     0.045 C 
HETATM   21  C   UNL     1     -45.651 -50.966  16.683  1.00  0.00     0.045 C 
HETATM   22  O   UNL     1     -45.865 -52.199  14.625  1.00  0.00    -0.369 OA
HETATM   23  C   UNL     1     -45.353 -51.923  13.306  1.00  0.00     0.075 C 
HETATM   24  C   UNL     1     -46.540 -51.586  12.403  1.00  0.00     0.048 C 
HETATM   25  C   UNL     1     -44.668 -53.194  12.788  1.00  0.00     0.048 C 
ENDBRANCH   4  17
TORSDOF 4
ENDMDL
