MODEL 1
REMARK VINA RESULT:      -5.9      0.000      0.000
REMARK  4 active torsions:
REMARK  status: ('A' for Active; 'I' for Inactive)
REMARK    1  A    between atoms: C_8  and  C_9 
REMARK    2  A    between atoms: C_9  and  C_10 
REMARK       I    between atoms: C_10  and  N_12 
REMARK    3  A    between atoms: N_12  and  C_13 
REMARK    4  A    between atoms: C_13  and  C_14 
ROOT
HETATM    1  C   UNL     1     -42.087 -48.906  11.821  1.00  0.00     0.222 C 
HETATM    2  O   UNL     1     -41.963 -48.153  12.782  1.00  0.00    -0.273 OA
HETATM    3  N   UNL     1     -42.352 -50.255  11.952  1.00  0.00    -0.360 N 
HETATM    4  H   UNL     1     -42.455 -50.826  11.120  1.00  0.00     0.162 HD
ENDROOT
BRANCH   1   5
HETATM    5  C   UNL     1     -41.987 -48.407  10.389  1.00  0.00     0.146 C 
BRANCH   5   6
HETATM    6  C   UNL     1     -42.570 -47.057  10.142  1.00  0.00     0.006 A 
HETATM    7  C   UNL     1     -43.868 -46.672   9.689  1.00  0.00     0.038 A 
HETATM    8  C   UNL     1     -45.040 -47.510   9.343  1.00  0.00     0.071 C 
HETATM    9  N   UNL     1     -43.968 -45.341   9.571  1.00  0.00    -0.265 N 
HETATM   10  O   UNL     1     -42.736 -44.834   9.912  1.00  0.00    -0.242 OA
ATOM     11  HN  UNL     1     -44.791 -44.811   9.286  1.00  0.00     0.194 HD
HETATM   12  C   UNL     1     -41.903 -45.850  10.243  1.00  0.00     0.081 A 
HETATM   13  C   UNL     1     -40.523 -45.459  10.597  1.00  0.00     0.079 C 
ENDBRANCH   5   6
ENDBRANCH   1   5
BRANCH   3  14
HETATM   14  C   UNL     1     -42.624 -50.869  13.243  1.00  0.00     0.127 C 
BRANCH  14  15
HETATM   15  C   UNL     1     -44.116 -50.807  13.607  1.00  0.00     0.003 C 
HETATM   16  C   UNL     1     -44.968 -51.760  12.754  1.00  0.00     0.006 C 
HETATM   17  C   UNL     1     -46.452 -51.571  13.066  1.00  0.00     0.000 C 
HETATM   18  C   UNL     1     -46.761 -51.745  14.550  1.00  0.00     0.000 C 
HETATM   19  C   UNL     1     -45.827 -50.937  15.451  1.00  0.00     0.000 C 
HETATM   20  C   UNL     1     -44.354 -51.133  15.090  1.00  0.00     0.006 C 
ENDBRANCH  14  15
ENDBRANCH   3  14
TORSDOF 4
ENDMDL
MODEL 2
REMARK VINA RESULT:      -5.8      5.248      6.921
REMARK  4 active torsions:
REMARK  status: ('A' for Active; 'I' for Inactive)
REMARK    1  A    between atoms: C_8  and  C_9 
REMARK    2  A    between atoms: C_9  and  C_10 
REMARK       I    between atoms: C_10  and  N_12 
REMARK    3  A    between atoms: N_12  and  C_13 
REMARK    4  A    between atoms: C_13  and  C_14 
ROOT
HETATM    1  C   UNL     1     -46.218 -52.713  13.374  1.00  0.00     0.222 C 
HETATM    2  O   UNL     1     -46.035 -52.776  12.162  1.00  0.00    -0.273 OA
HETATM    3  N   UNL     1     -45.926 -53.755  14.232  1.00  0.00    -0.360 N 
HETATM    4  H   UNL     1     -46.088 -53.641  15.227  1.00  0.00     0.162 HD
ENDROOT
BRANCH   1   5
HETATM    5  C   UNL     1     -46.761 -51.462  14.044  1.00  0.00     0.146 C 
BRANCH   5   6
HETATM    6  C   UNL     1     -46.092 -51.082  15.321  1.00  0.00     0.006 A 
HETATM    7  C   UNL     1     -44.724 -50.787  15.603  1.00  0.00     0.038 A 
HETATM    8  C   UNL     1     -43.553 -50.755  14.695  1.00  0.00     0.071 C 
HETATM    9  N   UNL     1     -44.541 -50.521  16.903  1.00  0.00    -0.265 N 
HETATM   10  O   UNL     1     -45.772 -50.666  17.499  1.00  0.00    -0.242 OA
ATOM     11  HN  UNL     1     -43.666 -50.264  17.359  1.00  0.00     0.194 HD
HETATM   12  C   UNL     1     -46.691 -51.007  16.564  1.00  0.00     0.081 A 
HETATM   13  C   UNL     1     -48.062 -51.235  17.065  1.00  0.00     0.079 C 
ENDBRANCH   5   6
ENDBRANCH   1   5
BRANCH   3  14
HETATM   14  C   UNL     1     -45.263 -54.970  13.780  1.00  0.00     0.127 C 
BRANCH  14  15
HETATM   15  C   UNL     1     -43.769 -54.979  14.141  1.00  0.00     0.003 C 
HETATM   16  C   UNL     1     -42.934 -54.094  13.203  1.00  0.00     0.006 C 
HETATM   17  C   UNL     1     -41.446 -54.235  13.522  1.00  0.00     0.000 C 
HETATM   18  C   UNL     1     -41.133 -53.926  14.984  1.00  0.00     0.000 C 
HETATM   19  C   UNL     1     -42.053 -54.664  15.957  1.00  0.00     0.000 C 
HETATM   20  C   UNL     1     -43.530 -54.520  15.588  1.00  0.00     0.006 C 
ENDBRANCH  14  15
ENDBRANCH   3  14
TORSDOF 4
ENDMDL
MODEL 3
REMARK VINA RESULT:      -5.7      2.005      2.493
REMARK  4 active torsions:
REMARK  status: ('A' for Active; 'I' for Inactive)
REMARK    1  A    between atoms: C_8  and  C_9 
REMARK    2  A    between atoms: C_9  and  C_10 
REMARK       I    between atoms: C_10  and  N_12 
REMARK    3  A    between atoms: N_12  and  C_13 
REMARK    4  A    between atoms: C_13  and  C_14 
ROOT
HETATM    1  C   UNL     1     -41.998 -49.238  11.513  1.00  0.00     0.222 C 
HETATM    2  O   UNL     1     -40.944 -49.060  10.910  1.00  0.00    -0.273 OA
HETATM    3  N   UNL     1     -42.364 -50.461  12.042  1.00  0.00    -0.360 N 
HETATM    4  H   UNL     1     -43.243 -50.545  12.541  1.00  0.00     0.162 HD
ENDROOT
BRANCH   1   5
HETATM    5  C   UNL     1     -42.988 -48.110  11.758  1.00  0.00     0.146 C 
BRANCH   5   6
HETATM    6  C   UNL     1     -43.175 -47.169  10.617  1.00  0.00     0.006 A 
HETATM    7  C   UNL     1     -44.217 -47.082   9.644  1.00  0.00     0.038 A 
HETATM    8  C   UNL     1     -45.444 -47.900   9.490  1.00  0.00     0.071 C 
HETATM    9  N   UNL     1     -43.980 -46.101   8.763  1.00  0.00    -0.265 N 
HETATM   10  O   UNL     1     -42.772 -45.550   9.121  1.00  0.00    -0.242 OA
ATOM     11  HN  UNL     1     -44.576 -45.819   7.985  1.00  0.00     0.194 HD
HETATM   12  C   UNL     1     -42.289 -46.188  10.214  1.00  0.00     0.081 A 
HETATM   13  C   UNL     1     -40.970 -45.729  10.696  1.00  0.00     0.079 C 
ENDBRANCH   5   6
ENDBRANCH   1   5
BRANCH   3  14
HETATM   14  C   UNL     1     -41.470 -51.609  12.028  1.00  0.00     0.127 C 
BRANCH  14  15
HETATM   15  C   UNL     1     -42.156 -52.880  12.557  1.00  0.00     0.003 C 
HETATM   16  C   UNL     1     -41.726 -53.223  13.992  1.00  0.00     0.006 C 
HETATM   17  C   UNL     1     -42.335 -54.556  14.424  1.00  0.00     0.000 C 
HETATM   18  C   UNL     1     -43.856 -54.570  14.293  1.00  0.00     0.000 C 
HETATM   19  C   UNL     1     -44.340 -54.077  12.929  1.00  0.00     0.000 C 
HETATM   20  C   UNL     1     -43.687 -52.756  12.521  1.00  0.00     0.006 C 
ENDBRANCH  14  15
ENDBRANCH   3  14
TORSDOF 4
ENDMDL
MODEL 4
REMARK VINA RESULT:      -5.7      2.207      3.225
REMARK  4 active torsions:
REMARK  status: ('A' for Active; 'I' for Inactive)
REMARK    1  A    between atoms: C_8  and  C_9 
REMARK    2  A    between atoms: C_9  and  C_10 
REMARK       I    between atoms: C_10  and  N_12 
REMARK    3  A    between atoms: N_12  and  C_13 
REMARK    4  A    between atoms: C_13  and  C_14 
ROOT
HETATM    1  C   UNL     1     -41.622 -49.830  11.640  1.00  0.00     0.222 C 
HETATM    2  O   UNL     1     -40.526 -49.811  11.087  1.00  0.00    -0.273 OA
HETATM    3  N   UNL     1     -42.220 -50.993  12.083  1.00  0.00    -0.360 N 
HETATM    4  H   UNL     1     -43.123 -50.945  12.544  1.00  0.00     0.162 HD
ENDROOT
BRANCH   1   5
HETATM    5  C   UNL     1     -42.408 -48.558  11.913  1.00  0.00     0.146 C 
BRANCH   5   6
HETATM    6  C   UNL     1     -42.119 -47.421  10.994  1.00  0.00     0.006 A 
HETATM    7  C   UNL     1     -41.024 -46.505  10.961  1.00  0.00     0.038 A 
HETATM    8  C   UNL     1     -39.827 -46.425  11.832  1.00  0.00     0.071 C 
HETATM    9  N   UNL     1     -41.171 -45.604   9.981  1.00  0.00    -0.265 N 
HETATM   10  O   UNL     1     -42.372 -45.891   9.375  1.00  0.00    -0.242 OA
ATOM     11  HN  UNL     1     -40.523 -44.857   9.733  1.00  0.00     0.194 HD
HETATM   12  C   UNL     1     -42.940 -46.962   9.980  1.00  0.00     0.081 A 
HETATM   13  C   UNL     1     -44.262 -47.368   9.460  1.00  0.00     0.079 C 
ENDBRANCH   5   6
ENDBRANCH   1   5
BRANCH   3  14
HETATM   14  C   UNL     1     -41.542 -52.281  12.035  1.00  0.00     0.127 C 
BRANCH  14  15
HETATM   15  C   UNL     1     -42.381 -53.398  12.677  1.00  0.00     0.003 C 
HETATM   16  C   UNL     1     -42.032 -53.616  14.157  1.00  0.00     0.006 C 
HETATM   17  C   UNL     1     -42.799 -54.815  14.713  1.00  0.00     0.000 C 
HETATM   18  C   UNL     1     -44.308 -54.678  14.524  1.00  0.00     0.000 C 
HETATM   19  C   UNL     1     -44.696 -54.299  13.095  1.00  0.00     0.000 C 
HETATM   20  C   UNL     1     -43.887 -53.113  12.566  1.00  0.00     0.006 C 
ENDBRANCH  14  15
ENDBRANCH   3  14
TORSDOF 4
ENDMDL
MODEL 5
REMARK VINA RESULT:      -5.6      4.865      6.452
REMARK  4 active torsions:
REMARK  status: ('A' for Active; 'I' for Inactive)
REMARK    1  A    between atoms: C_8  and  C_9 
REMARK    2  A    between atoms: C_9  and  C_10 
REMARK       I    between atoms: C_10  and  N_12 
REMARK    3  A    between atoms: N_12  and  C_13 
REMARK    4  A    between atoms: C_13  and  C_14 
ROOT
HETATM    1  C   UNL     1     -44.826 -53.769  12.807  1.00  0.00     0.222 C 
HETATM    2  O   UNL     1     -45.626 -54.586  13.252  1.00  0.00    -0.273 OA
HETATM    3  N   UNL     1     -45.156 -52.450  12.567  1.00  0.00    -0.360 N 
HETATM    4  H   UNL     1     -44.448 -51.817  12.209  1.00  0.00     0.162 HD
ENDROOT
BRANCH   1   5
HETATM    5  C   UNL     1     -43.382 -54.136  12.507  1.00  0.00     0.146 C 
BRANCH   5   6
HETATM    6  C   UNL     1     -42.377 -53.609  13.473  1.00  0.00     0.006 A 
HETATM    7  C   UNL     1     -41.429 -52.549  13.344  1.00  0.00     0.038 A 
HETATM    8  C   UNL     1     -41.171 -51.638  12.204  1.00  0.00     0.071 C 
HETATM    9  N   UNL     1     -40.685 -52.423  14.452  1.00  0.00    -0.265 N 
HETATM   10  O   UNL     1     -41.109 -53.410  15.310  1.00  0.00    -0.242 OA
ATOM     11  HN  UNL     1     -39.953 -51.734  14.624  1.00  0.00     0.194 HD
HETATM   12  C   UNL     1     -42.106 -54.120  14.728  1.00  0.00     0.081 A 
HETATM   13  C   UNL     1     -42.639 -55.247  15.521  1.00  0.00     0.079 C 
ENDBRANCH   5   6
ENDBRANCH   1   5
BRANCH   3  14
HETATM   14  C   UNL     1     -46.450 -51.894  12.936  1.00  0.00     0.127 C 
BRANCH  14  15
HETATM   15  C   UNL     1     -46.429 -51.269  14.340  1.00  0.00     0.003 C 
HETATM   16  C   UNL     1     -47.233 -52.091  15.359  1.00  0.00     0.006 C 
HETATM   17  C   UNL     1     -47.287 -51.366  16.704  1.00  0.00     0.000 C 
HETATM   18  C   UNL     1     -45.897 -51.039  17.244  1.00  0.00     0.000 C 
HETATM   19  C   UNL     1     -45.000 -50.363  16.206  1.00  0.00     0.000 C 
HETATM   20  C   UNL     1     -44.995 -51.103  14.868  1.00  0.00     0.006 C 
ENDBRANCH  14  15
ENDBRANCH   3  14
TORSDOF 4
ENDMDL
MODEL 6
REMARK VINA RESULT:      -5.6      2.922      6.971
REMARK  4 active torsions:
REMARK  status: ('A' for Active; 'I' for Inactive)
REMARK    1  A    between atoms: C_8  and  C_9 
REMARK    2  A    between atoms: C_9  and  C_10 
REMARK       I    between atoms: C_10  and  N_12 
REMARK    3  A    between atoms: N_12  and  C_13 
REMARK    4  A    between atoms: C_13  and  C_14 
ROOT
HETATM    1  C   UNL     1     -42.688 -51.724  12.838  1.00  0.00     0.222 C 
HETATM    2  O   UNL     1     -42.742 -51.345  14.004  1.00  0.00    -0.273 OA
HETATM    3  N   UNL     1     -42.012 -51.031  11.853  1.00  0.00    -0.360 N 
HETATM    4  H   UNL     1     -41.992 -51.401  10.908  1.00  0.00     0.162 HD
ENDROOT
BRANCH   1   5
HETATM    5  C   UNL     1     -43.344 -53.017  12.380  1.00  0.00     0.146 C 
BRANCH   5   6
HETATM    6  C   UNL     1     -44.533 -53.443  13.171  1.00  0.00     0.006 A 
HETATM    7  C   UNL     1     -45.887 -52.991  13.133  1.00  0.00     0.038 A 
HETATM    8  C   UNL     1     -46.522 -51.964  12.273  1.00  0.00     0.071 C 
HETATM    9  N   UNL     1     -46.637 -53.623  14.046  1.00  0.00    -0.265 N 
HETATM   10  O   UNL     1     -45.789 -54.474  14.715  1.00  0.00    -0.242 OA
ATOM     11  HN  UNL     1     -47.636 -53.499  14.210  1.00  0.00     0.194 HD
HETATM   12  C   UNL     1     -44.539 -54.362  14.204  1.00  0.00     0.081 A 
HETATM   13  C   UNL     1     -43.503 -55.193  14.852  1.00  0.00     0.079 C 
ENDBRANCH   5   6
ENDBRANCH   1   5
BRANCH   3  14
HETATM   14  C   UNL     1     -41.207 -49.855  12.147  1.00  0.00     0.127 C 
BRANCH  14  15
HETATM   15  C   UNL     1     -41.621 -48.645  11.293  1.00  0.00     0.003 C 
HETATM   16  C   UNL     1     -43.081 -48.232  11.533  1.00  0.00     0.006 C 
HETATM   17  C   UNL     1     -43.481 -47.111  10.574  1.00  0.00     0.000 C 
HETATM   18  C   UNL     1     -42.551 -45.904  10.670  1.00  0.00     0.000 C 
HETATM   19  C   UNL     1     -41.072 -46.287  10.600  1.00  0.00     0.000 C 
HETATM   20  C   UNL     1     -40.719 -47.429  11.554  1.00  0.00     0.006 C 
ENDBRANCH  14  15
ENDBRANCH   3  14
TORSDOF 4
ENDMDL
MODEL 7
REMARK VINA RESULT:      -5.6      3.967      4.521
REMARK  4 active torsions:
REMARK  status: ('A' for Active; 'I' for Inactive)
REMARK    1  A    between atoms: C_8  and  C_9 
REMARK    2  A    between atoms: C_9  and  C_10 
REMARK       I    between atoms: C_10  and  N_12 
REMARK    3  A    between atoms: N_12  and  C_13 
REMARK    4  A    between atoms: C_13  and  C_14 
ROOT
HETATM    1  C   UNL     1     -41.124 -51.853  11.994  1.00  0.00     0.222 C 
HETATM    2  O   UNL     1     -40.333 -52.754  12.256  1.00  0.00    -0.273 OA
HETATM    3  N   UNL     1     -42.494 -52.025  12.018  1.00  0.00    -0.360 N 
HETATM    4  H   UNL     1     -43.099 -51.239  11.803  1.00  0.00     0.162 HD
ENDROOT
BRANCH   1   5
HETATM    5  C   UNL     1     -40.658 -50.449  11.643  1.00  0.00     0.146 C 
BRANCH   5   6
HETATM    6  C   UNL     1     -39.662 -49.856  12.580  1.00  0.00     0.006 A 
HETATM    7  C   UNL     1     -39.831 -49.279  13.875  1.00  0.00     0.038 A 
HETATM    8  C   UNL     1     -41.060 -49.114  14.689  1.00  0.00     0.071 C 
HETATM    9  N   UNL     1     -38.668 -48.831  14.365  1.00  0.00    -0.265 N 
HETATM   10  O   UNL     1     -37.725 -49.075  13.393  1.00  0.00    -0.242 OA
ATOM     11  HN  UNL     1     -38.512 -48.396  15.274  1.00  0.00     0.194 HD
HETATM   12  C   UNL     1     -38.315 -49.675  12.331  1.00  0.00     0.081 A 
HETATM   13  C   UNL     1     -37.429 -49.966  11.185  1.00  0.00     0.079 C 
ENDBRANCH   5   6
ENDBRANCH   1   5
BRANCH   3  14
HETATM   14  C   UNL     1     -43.112 -53.261  12.476  1.00  0.00     0.127 C 
BRANCH  14  15
HETATM   15  C   UNL     1     -44.559 -53.041  12.948  1.00  0.00     0.003 C 
HETATM   16  C   UNL     1     -44.926 -53.933  14.144  1.00  0.00     0.006 C 
HETATM   17  C   UNL     1     -46.405 -53.770  14.495  1.00  0.00     0.000 C 
HETATM   18  C   UNL     1     -46.782 -52.315  14.763  1.00  0.00     0.000 C 
HETATM   19  C   UNL     1     -46.291 -51.363  13.672  1.00  0.00     0.000 C 
HETATM   20  C   UNL     1     -44.816 -51.576  13.332  1.00  0.00     0.006 C 
ENDBRANCH  14  15
ENDBRANCH   3  14
TORSDOF 4
ENDMDL
MODEL 8
REMARK VINA RESULT:      -5.5      3.980      4.813
REMARK  4 active torsions:
REMARK  status: ('A' for Active; 'I' for Inactive)
REMARK    1  A    between atoms: C_8  and  C_9 
REMARK    2  A    between atoms: C_9  and  C_10 
REMARK       I    between atoms: C_10  and  N_12 
REMARK    3  A    between atoms: N_12  and  C_13 
REMARK    4  A    between atoms: C_13  and  C_14 
ROOT
HETATM    1  C   UNL     1     -41.263 -51.950  11.978  1.00  0.00     0.222 C 
HETATM    2  O   UNL     1     -40.495 -52.895  12.130  1.00  0.00    -0.273 OA
HETATM    3  N   UNL     1     -42.635 -52.074  12.075  1.00  0.00    -0.360 N 
HETATM    4  H   UNL     1     -43.220 -51.255  11.950  1.00  0.00     0.162 HD
ENDROOT
BRANCH   1   5
HETATM    5  C   UNL     1     -40.764 -50.543  11.694  1.00  0.00     0.146 C 
BRANCH   5   6
HETATM    6  C   UNL     1     -39.740 -50.026  12.647  1.00  0.00     0.006 A 
HETATM    7  C   UNL     1     -38.343 -49.788  12.474  1.00  0.00     0.038 A 
HETATM    8  C   UNL     1     -37.490 -49.970  11.275  1.00  0.00     0.071 C 
HETATM    9  N   UNL     1     -37.780 -49.347  13.607  1.00  0.00    -0.265 N 
HETATM   10  O   UNL     1     -38.784 -49.317  14.545  1.00  0.00    -0.242 OA
ATOM     11  HN  UNL     1     -36.804 -49.086  13.745  1.00  0.00     0.194 HD
HETATM   12  C   UNL     1     -39.946 -49.728  13.981  1.00  0.00     0.081 A 
HETATM   13  C   UNL     1     -41.114 -49.786  14.884  1.00  0.00     0.079 C 
ENDBRANCH   5   6
ENDBRANCH   1   5
BRANCH   3  14
HETATM   14  C   UNL     1     -43.274 -53.316  12.486  1.00  0.00     0.127 C 
BRANCH  14  15
HETATM   15  C   UNL     1     -44.705 -53.086  12.998  1.00  0.00     0.003 C 
HETATM   16  C   UNL     1     -45.020 -53.918  14.251  1.00  0.00     0.006 C 
HETATM   17  C   UNL     1     -46.487 -53.751  14.645  1.00  0.00     0.000 C 
HETATM   18  C   UNL     1     -46.871 -52.288  14.852  1.00  0.00     0.000 C 
HETATM   19  C   UNL     1     -46.430 -51.389  13.697  1.00  0.00     0.000 C 
HETATM   20  C   UNL     1     -44.965 -51.605  13.315  1.00  0.00     0.006 C 
ENDBRANCH  14  15
ENDBRANCH   3  14
TORSDOF 4
ENDMDL
MODEL 9
REMARK VINA RESULT:      -5.5      3.306      6.853
REMARK  4 active torsions:
REMARK  status: ('A' for Active; 'I' for Inactive)
REMARK    1  A    between atoms: C_8  and  C_9 
REMARK    2  A    between atoms: C_9  and  C_10 
REMARK       I    between atoms: C_10  and  N_12 
REMARK    3  A    between atoms: N_12  and  C_13 
REMARK    4  A    between atoms: C_13  and  C_14 
ROOT
HETATM    1  C   UNL     1     -42.601 -49.532  13.267  1.00  0.00     0.222 C 
HETATM    2  O   UNL     1     -42.770 -49.159  12.111  1.00  0.00    -0.273 OA
HETATM    3  N   UNL     1     -41.509 -49.157  14.026  1.00  0.00    -0.360 N 
HETATM    4  H   UNL     1     -41.429 -49.488  14.981  1.00  0.00     0.162 HD
ENDROOT
BRANCH   1   5
HETATM    5  C   UNL     1     -43.602 -50.426  13.980  1.00  0.00     0.146 C 
BRANCH   5   6
HETATM    6  C   UNL     1     -43.921 -51.706  13.285  1.00  0.00     0.006 A 
HETATM    7  C   UNL     1     -43.062 -52.713  12.749  1.00  0.00     0.038 A 
HETATM    8  C   UNL     1     -41.582 -52.793  12.740  1.00  0.00     0.071 C 
HETATM    9  N   UNL     1     -43.765 -53.696  12.172  1.00  0.00    -0.265 N 
HETATM   10  O   UNL     1     -45.088 -53.341  12.291  1.00  0.00    -0.242 OA
ATOM     11  HN  UNL     1     -43.394 -54.539  11.733  1.00  0.00     0.194 HD
HETATM   12  C   UNL     1     -45.182 -52.156  12.942  1.00  0.00     0.081 A 
HETATM   13  C   UNL     1     -46.550 -51.623  13.112  1.00  0.00     0.079 C 
ENDBRANCH   5   6
ENDBRANCH   1   5
BRANCH   3  14
HETATM   14  C   UNL     1     -40.532 -48.188  13.551  1.00  0.00     0.127 C 
BRANCH  14  15
HETATM   15  C   UNL     1     -39.178 -48.844  13.233  1.00  0.00     0.003 C 
HETATM   16  C   UNL     1     -38.906 -50.079  14.107  1.00  0.00     0.006 C 
HETATM   17  C   UNL     1     -37.501 -50.619  13.842  1.00  0.00     0.000 C 
HETATM   18  C   UNL     1     -37.268 -50.933  12.367  1.00  0.00     0.000 C 
HETATM   19  C   UNL     1     -37.680 -49.787  11.442  1.00  0.00     0.000 C 
HETATM   20  C   UNL     1     -39.080 -49.258  11.757  1.00  0.00     0.006 C 
ENDBRANCH  14  15
ENDBRANCH   3  14
TORSDOF 4
ENDMDL
