MODEL 1
REMARK VINA RESULT:      -5.9      0.000      0.000
REMARK  4 active torsions:
REMARK  status: ('A' for Active; 'I' for Inactive)
REMARK    1  A    between atoms: N_5  and  C_8 
REMARK    2  A    between atoms: C_8  and  C_11 
REMARK    3  A    between atoms: C_11  and  N_12 
REMARK       I    between atoms: N_12  and  C_13 
REMARK       I    between atoms: C_13  and  N_15 
REMARK    4  A    between atoms: N_15  and  C_16 
ROOT
HETATM    1  N   UNL     1     -40.796 -51.033  11.365  1.00  0.00    -0.340 N 
HETATM    2  C   UNL     1     -40.795 -49.653  11.466  1.00  0.00     0.322 C 
HETATM    3  O   UNL     1     -40.381 -49.075  12.462  1.00  0.00    -0.247 OA
HETATM    4  N   UNL     1     -41.374 -49.065  10.373  1.00  0.00    -0.288 N 
HETATM    5  H   UNL     1     -40.716 -51.461  10.453  1.00  0.00     0.164 HD
HETATM    6  H   UNL     1     -41.928 -49.628   9.752  1.00  0.00     0.172 HD
ENDROOT
BRANCH   1   7
HETATM    7  C   UNL     1     -40.342 -51.835  12.488  1.00  0.00     0.165 C 
BRANCH   7   8
HETATM    8  C   UNL     1     -41.485 -52.615  13.229  1.00  0.00     0.168 C 
HETATM    9  C   UNL     1     -41.236 -52.365  14.731  1.00  0.00     0.050 C 
HETATM   10  C   UNL     1     -41.239 -54.127  12.975  1.00  0.00     0.050 C 
BRANCH   8  11
HETATM   11  N   UNL     1     -42.829 -52.215  12.694  1.00  0.00     0.102 N 
HETATM   12  C   UNL     1     -43.557 -51.163  13.434  1.00  0.00     0.303 C 
HETATM   13  C   UNL     1     -44.379 -51.633  14.659  1.00  0.00     0.302 C 
HETATM   14  N   UNL     1     -45.269 -52.785  14.437  1.00  0.00     0.087 N 
HETATM   15  C   UNL     1     -46.550 -52.373  13.876  1.00  0.00     0.310 C 
HETATM   16  C   UNL     1     -44.622 -53.818  13.608  1.00  0.00     0.302 C 
HETATM   17  C   UNL     1     -43.794 -53.299  12.407  1.00  0.00     0.303 C 
ENDBRANCH   8  11
ENDBRANCH   7   8
ENDBRANCH   1   7
BRANCH   4  18
HETATM   18  C   UNL     1     -41.569 -47.709  10.349  1.00  0.00     0.168 A 
HETATM   19  N   UNL     1     -40.703 -46.729  10.442  1.00  0.00    -0.279 N 
HETATM   20  N   UNL     1     -41.319 -45.492  10.450  1.00  0.00    -0.303 N 
ATOM     21  HN  UNL     1     -39.694 -46.864  10.501  1.00  0.00     0.189 HD
HETATM   22  C   UNL     1     -42.626 -45.605  10.362  1.00  0.00     0.160 A 
ATOM     23  HN  UNL     1     -40.823 -44.603  10.516  1.00  0.00     0.186 HD
HETATM   24  S   UNL     1     -43.199 -47.216  10.202  1.00  0.00    -0.046 SA
ENDBRANCH   4  18
TORSDOF 4
ENDMDL
MODEL 2
REMARK VINA RESULT:      -5.8      2.752      7.403
REMARK  4 active torsions:
REMARK  status: ('A' for Active; 'I' for Inactive)
REMARK    1  A    between atoms: N_5  and  C_8 
REMARK    2  A    between atoms: C_8  and  C_11 
REMARK    3  A    between atoms: C_11  and  N_12 
REMARK       I    between atoms: N_12  and  C_13 
REMARK       I    between atoms: C_13  and  N_15 
REMARK    4  A    between atoms: N_15  and  C_16 
ROOT
HETATM    1  N   UNL     1     -42.172 -49.095  11.155  1.00  0.00    -0.340 N 
HETATM    2  C   UNL     1     -41.431 -50.152  11.652  1.00  0.00     0.322 C 
HETATM    3  O   UNL     1     -40.216 -50.089  11.781  1.00  0.00    -0.247 OA
HETATM    4  N   UNL     1     -42.212 -51.253  11.886  1.00  0.00    -0.288 N 
HETATM    5  H   UNL     1     -43.132 -48.985  11.449  1.00  0.00     0.164 HD
HETATM    6  H   UNL     1     -43.133 -51.291  11.486  1.00  0.00     0.172 HD
ENDROOT
BRANCH   1   7
HETATM    7  C   UNL     1     -41.495 -47.885  10.722  1.00  0.00     0.165 C 
BRANCH   7   8
HETATM    8  C   UNL     1     -42.342 -46.574  10.895  1.00  0.00     0.168 C 
HETATM    9  C   UNL     1     -43.025 -46.713  12.272  1.00  0.00     0.050 C 
HETATM   10  C   UNL     1     -43.467 -46.618   9.826  1.00  0.00     0.050 C 
BRANCH   8  11
HETATM   11  N   UNL     1     -41.484 -45.360  10.690  1.00  0.00     0.102 N 
HETATM   12  C   UNL     1     -40.092 -45.434  11.183  1.00  0.00     0.303 C 
HETATM   13  C   UNL     1     -39.882 -45.114  12.683  1.00  0.00     0.302 C 
HETATM   14  N   UNL     1     -40.514 -43.879  13.176  1.00  0.00     0.087 N 
HETATM   15  C   UNL     1     -39.679 -42.710  12.924  1.00  0.00     0.310 C 
HETATM   16  C   UNL     1     -41.869 -43.706  12.622  1.00  0.00     0.302 C 
HETATM   17  C   UNL     1     -42.036 -44.058  11.123  1.00  0.00     0.303 C 
ENDBRANCH   8  11
ENDBRANCH   7   8
ENDBRANCH   1   7
BRANCH   4  18
HETATM   18  C   UNL     1     -41.632 -52.433  12.269  1.00  0.00     0.168 A 
HETATM   19  N   UNL     1     -40.948 -53.305  11.568  1.00  0.00    -0.279 N 
HETATM   20  N   UNL     1     -40.598 -54.413  12.317  1.00  0.00    -0.303 N 
ATOM     21  HN  UNL     1     -40.703 -53.180  10.586  1.00  0.00     0.189 HD
HETATM   22  C   UNL     1     -41.039 -54.317  13.552  1.00  0.00     0.160 A 
ATOM     23  HN  UNL     1     -40.065 -55.204  11.959  1.00  0.00     0.186 HD
HETATM   24  S   UNL     1     -41.859 -52.850  13.911  1.00  0.00    -0.046 SA
ENDBRANCH   4  18
TORSDOF 4
ENDMDL
MODEL 3
REMARK VINA RESULT:      -5.7      1.417      2.068
REMARK  4 active torsions:
REMARK  status: ('A' for Active; 'I' for Inactive)
REMARK    1  A    between atoms: N_5  and  C_8 
REMARK    2  A    between atoms: C_8  and  C_11 
REMARK    3  A    between atoms: C_11  and  N_12 
REMARK       I    between atoms: N_12  and  C_13 
REMARK       I    between atoms: C_13  and  N_15 
REMARK    4  A    between atoms: N_15  and  C_16 
ROOT
HETATM    1  N   UNL     1     -42.418 -51.056  12.071  1.00  0.00    -0.340 N 
HETATM    2  C   UNL     1     -41.684 -49.886  11.996  1.00  0.00     0.322 C 
HETATM    3  O   UNL     1     -40.931 -49.533  12.894  1.00  0.00    -0.247 OA
HETATM    4  N   UNL     1     -41.974 -49.177  10.860  1.00  0.00    -0.288 N 
HETATM    5  H   UNL     1     -42.666 -51.538  11.218  1.00  0.00     0.164 HD
HETATM    6  H   UNL     1     -42.800 -49.411  10.338  1.00  0.00     0.172 HD
ENDROOT
BRANCH   1   7
HETATM    7  C   UNL     1     -42.342 -51.875  13.268  1.00  0.00     0.165 C 
BRANCH   7   8
HETATM    8  C   UNL     1     -43.696 -52.563  13.667  1.00  0.00     0.168 C 
HETATM    9  C   UNL     1     -43.314 -53.626  14.718  1.00  0.00     0.050 C 
HETATM   10  C   UNL     1     -44.202 -53.328  12.414  1.00  0.00     0.050 C 
BRANCH   8  11
HETATM   11  N   UNL     1     -44.706 -51.535  14.086  1.00  0.00     0.102 N 
HETATM   12  C   UNL     1     -44.626 -51.049  15.479  1.00  0.00     0.303 C 
HETATM   13  C   UNL     1     -45.329 -51.921  16.548  1.00  0.00     0.302 C 
HETATM   14  N   UNL     1     -46.713 -52.325  16.246  1.00  0.00     0.087 N 
HETATM   15  C   UNL     1     -47.669 -51.291  16.622  1.00  0.00     0.310 C 
HETATM   16  C   UNL     1     -46.866 -52.717  14.833  1.00  0.00     0.302 C 
HETATM   17  C   UNL     1     -46.128 -51.828  13.802  1.00  0.00     0.303 C 
ENDBRANCH   8  11
ENDBRANCH   7   8
ENDBRANCH   1   7
BRANCH   4  18
HETATM   18  C   UNL     1     -41.431 -47.934  10.673  1.00  0.00     0.168 A 
HETATM   19  N   UNL     1     -40.178 -47.549  10.685  1.00  0.00    -0.279 N 
HETATM   20  N   UNL     1     -40.054 -46.181  10.526  1.00  0.00    -0.303 N 
ATOM     21  HN  UNL     1     -39.388 -48.183  10.799  1.00  0.00     0.189 HD
HETATM   22  C   UNL     1     -41.228 -45.604  10.401  1.00  0.00     0.160 A 
ATOM     23  HN  UNL     1     -39.164 -45.683  10.508  1.00  0.00     0.186 HD
HETATM   24  S   UNL     1     -42.564 -46.683  10.406  1.00  0.00    -0.046 SA
ENDBRANCH   4  18
TORSDOF 4
ENDMDL
MODEL 4
REMARK VINA RESULT:      -5.7      2.662      3.448
REMARK  4 active torsions:
REMARK  status: ('A' for Active; 'I' for Inactive)
REMARK    1  A    between atoms: N_5  and  C_8 
REMARK    2  A    between atoms: C_8  and  C_11 
REMARK    3  A    between atoms: C_11  and  N_12 
REMARK       I    between atoms: N_12  and  C_13 
REMARK       I    between atoms: C_13  and  N_15 
REMARK    4  A    between atoms: N_15  and  C_16 
ROOT
HETATM    1  N   UNL     1     -43.010 -52.457  12.146  1.00  0.00    -0.340 N 
HETATM    2  C   UNL     1     -41.696 -52.041  12.023  1.00  0.00     0.322 C 
HETATM    3  O   UNL     1     -40.754 -52.796  12.224  1.00  0.00    -0.247 OA
HETATM    4  N   UNL     1     -41.612 -50.704  11.740  1.00  0.00    -0.288 N 
HETATM    5  H   UNL     1     -43.723 -52.008  11.588  1.00  0.00     0.164 HD
HETATM    6  H   UNL     1     -42.423 -50.125  11.874  1.00  0.00     0.172 HD
ENDROOT
BRANCH   1   7
HETATM    7  C   UNL     1     -43.295 -53.815  12.574  1.00  0.00     0.165 C 
BRANCH   7   8
HETATM    8  C   UNL     1     -44.084 -53.914  13.928  1.00  0.00     0.168 C 
HETATM    9  C   UNL     1     -43.134 -54.649  14.896  1.00  0.00     0.050 C 
HETATM   10  C   UNL     1     -45.294 -54.855  13.679  1.00  0.00     0.050 C 
BRANCH   8  11
HETATM   11  N   UNL     1     -44.566 -52.559  14.357  1.00  0.00     0.102 N 
HETATM   12  C   UNL     1     -44.309 -52.172  15.760  1.00  0.00     0.303 C 
HETATM   13  C   UNL     1     -45.334 -52.675  16.806  1.00  0.00     0.302 C 
HETATM   14  N   UNL     1     -46.753 -52.446  16.484  1.00  0.00     0.087 N 
HETATM   15  C   UNL     1     -47.183 -51.108  16.871  1.00  0.00     0.310 C 
HETATM   16  C   UNL     1     -47.035 -52.716  15.062  1.00  0.00     0.302 C 
HETATM   17  C   UNL     1     -45.972 -52.212  14.055  1.00  0.00     0.303 C 
ENDBRANCH   8  11
ENDBRANCH   7   8
ENDBRANCH   1   7
BRANCH   4  18
HETATM   18  C   UNL     1     -40.389 -50.089  11.699  1.00  0.00     0.168 A 
HETATM   19  N   UNL     1     -39.508 -50.024  10.731  1.00  0.00    -0.279 N 
HETATM   20  N   UNL     1     -38.356 -49.365  11.120  1.00  0.00    -0.303 N 
ATOM     21  HN  UNL     1     -39.654 -50.413   9.800  1.00  0.00     0.189 HD
HETATM   22  C   UNL     1     -38.431 -48.965  12.370  1.00  0.00     0.160 A 
ATOM     23  HN  UNL     1     -37.551 -49.209  10.515  1.00  0.00     0.186 HD
HETATM   24  S   UNL     1     -39.926 -49.305  13.145  1.00  0.00    -0.046 SA
ENDBRANCH   4  18
TORSDOF 4
ENDMDL
MODEL 5
REMARK VINA RESULT:      -5.7      1.647      1.747
REMARK  4 active torsions:
REMARK  status: ('A' for Active; 'I' for Inactive)
REMARK    1  A    between atoms: N_5  and  C_8 
REMARK    2  A    between atoms: C_8  and  C_11 
REMARK    3  A    between atoms: C_11  and  N_12 
REMARK       I    between atoms: N_12  and  C_13 
REMARK       I    between atoms: C_13  and  N_15 
REMARK    4  A    between atoms: N_15  and  C_16 
ROOT
HETATM    1  N   UNL     1     -42.002 -50.103  11.879  1.00  0.00    -0.340 N 
HETATM    2  C   UNL     1     -42.529 -48.836  11.698  1.00  0.00     0.322 C 
HETATM    3  O   UNL     1     -43.081 -48.227  12.604  1.00  0.00    -0.247 OA
HETATM    4  N   UNL     1     -42.419 -48.423  10.397  1.00  0.00    -0.288 N 
HETATM    5  H   UNL     1     -41.215 -50.395  11.316  1.00  0.00     0.164 HD
HETATM    6  H   UNL     1     -42.209 -49.101   9.686  1.00  0.00     0.172 HD
ENDROOT
BRANCH   1   7
HETATM    7  C   UNL     1     -42.146 -50.762  13.165  1.00  0.00     0.165 C 
BRANCH   7   8
HETATM    8  C   UNL     1     -42.149 -52.331  13.090  1.00  0.00     0.168 C 
HETATM    9  C   UNL     1     -41.496 -52.800  14.407  1.00  0.00     0.050 C 
HETATM   10  C   UNL     1     -41.185 -52.731  11.939  1.00  0.00     0.050 C 
BRANCH   8  11
HETATM   11  N   UNL     1     -43.531 -52.842  12.805  1.00  0.00     0.102 N 
HETATM   12  C   UNL     1     -44.658 -52.075  13.376  1.00  0.00     0.303 C 
HETATM   13  C   UNL     1     -45.030 -52.398  14.844  1.00  0.00     0.302 C 
HETATM   14  N   UNL     1     -45.189 -53.825  15.172  1.00  0.00     0.087 N 
HETATM   15  C   UNL     1     -46.525 -54.306  14.845  1.00  0.00     0.310 C 
HETATM   16  C   UNL     1     -44.145 -54.647  14.532  1.00  0.00     0.302 C 
HETATM   17  C   UNL     1     -43.792 -54.273  13.072  1.00  0.00     0.303 C 
ENDBRANCH   8  11
ENDBRANCH   7   8
ENDBRANCH   1   7
BRANCH   4  18
HETATM   18  C   UNL     1     -42.991 -47.242  10.004  1.00  0.00     0.168 A 
HETATM   19  N   UNL     1     -43.015 -46.075  10.600  1.00  0.00    -0.279 N 
HETATM   20  N   UNL     1     -43.770 -45.151   9.901  1.00  0.00    -0.303 N 
ATOM     21  HN  UNL     1     -42.534 -45.872  11.476  1.00  0.00     0.189 HD
HETATM   22  C   UNL     1     -44.278 -45.674   8.807  1.00  0.00     0.160 A 
ATOM     23  HN  UNL     1     -43.914 -44.186  10.196  1.00  0.00     0.186 HD
HETATM   24  S   UNL     1     -43.828 -47.306   8.515  1.00  0.00    -0.046 SA
ENDBRANCH   4  18
TORSDOF 4
ENDMDL
MODEL 6
REMARK VINA RESULT:      -5.7      1.811      3.130
REMARK  4 active torsions:
REMARK  status: ('A' for Active; 'I' for Inactive)
REMARK    1  A    between atoms: N_5  and  C_8 
REMARK    2  A    between atoms: C_8  and  C_11 
REMARK    3  A    between atoms: C_11  and  N_12 
REMARK       I    between atoms: N_12  and  C_13 
REMARK       I    between atoms: C_13  and  N_15 
REMARK    4  A    between atoms: N_15  and  C_16 
ROOT
HETATM    1  N   UNL     1     -43.737 -50.155  12.551  1.00  0.00    -0.340 N 
HETATM    2  C   UNL     1     -42.782 -49.165  12.407  1.00  0.00     0.322 C 
HETATM    3  O   UNL     1     -42.215 -48.665  13.370  1.00  0.00    -0.247 OA
HETATM    4  N   UNL     1     -42.634 -48.789  11.099  1.00  0.00    -0.288 N 
HETATM    5  H   UNL     1     -43.863 -50.830  11.810  1.00  0.00     0.164 HD
HETATM    6  H   UNL     1     -43.338 -49.057  10.433  1.00  0.00     0.172 HD
ENDROOT
BRANCH   1   7
HETATM    7  C   UNL     1     -44.126 -50.590  13.882  1.00  0.00     0.165 C 
BRANCH   7   8
HETATM    8  C   UNL     1     -44.964 -51.917  13.909  1.00  0.00     0.168 C 
HETATM    9  C   UNL     1     -44.656 -52.617  12.568  1.00  0.00     0.050 C 
HETATM   10  C   UNL     1     -46.462 -51.507  13.871  1.00  0.00     0.050 C 
BRANCH   8  11
HETATM   11  N   UNL     1     -44.676 -52.698  15.158  1.00  0.00     0.102 N 
HETATM   12  C   UNL     1     -43.318 -52.569  15.728  1.00  0.00     0.303 C 
HETATM   13  C   UNL     1     -42.230 -53.483  15.114  1.00  0.00     0.302 C 
HETATM   14  N   UNL     1     -42.577 -54.908  14.988  1.00  0.00     0.087 N 
HETATM   15  C   UNL     1     -42.329 -55.633  16.227  1.00  0.00     0.310 C 
HETATM   16  C   UNL     1     -43.965 -55.088  14.523  1.00  0.00     0.302 C 
HETATM   17  C   UNL     1     -45.015 -54.138  15.150  1.00  0.00     0.303 C 
ENDBRANCH   8  11
ENDBRANCH   7   8
ENDBRANCH   1   7
BRANCH   4  18
HETATM   18  C   UNL     1     -41.818 -47.738  10.777  1.00  0.00     0.168 A 
HETATM   19  N   UNL     1     -40.510 -47.678  10.695  1.00  0.00    -0.279 N 
HETATM   20  N   UNL     1     -40.067 -46.399  10.412  1.00  0.00    -0.303 N 
ATOM     21  HN  UNL     1     -39.894 -48.479  10.826  1.00  0.00     0.189 HD
HETATM   22  C   UNL     1     -41.070 -45.558  10.294  1.00  0.00     0.160 A 
ATOM     23  HN  UNL     1     -39.086 -46.141  10.308  1.00  0.00     0.186 HD
HETATM   24  S   UNL     1     -42.626 -46.266  10.457  1.00  0.00    -0.046 SA
ENDBRANCH   4  18
TORSDOF 4
ENDMDL
MODEL 7
REMARK VINA RESULT:      -5.6      2.581      3.525
REMARK  4 active torsions:
REMARK  status: ('A' for Active; 'I' for Inactive)
REMARK    1  A    between atoms: N_5  and  C_8 
REMARK    2  A    between atoms: C_8  and  C_11 
REMARK    3  A    between atoms: C_11  and  N_12 
REMARK       I    between atoms: N_12  and  C_13 
REMARK       I    between atoms: C_13  and  N_15 
REMARK    4  A    between atoms: N_15  and  C_16 
ROOT
HETATM    1  N   UNL     1     -39.892 -48.520  11.017  1.00  0.00    -0.340 N 
HETATM    2  C   UNL     1     -41.110 -47.864  11.007  1.00  0.00     0.322 C 
HETATM    3  O   UNL     1     -41.497 -47.199  11.958  1.00  0.00    -0.247 OA
HETATM    4  N   UNL     1     -41.818 -48.126   9.864  1.00  0.00    -0.288 N 
HETATM    5  H   UNL     1     -39.409 -48.677  10.143  1.00  0.00     0.164 HD
HETATM    6  H   UNL     1     -41.538 -48.898   9.284  1.00  0.00     0.172 HD
ENDROOT
BRANCH   1   7
HETATM    7  C   UNL     1     -39.058 -48.467  12.205  1.00  0.00     0.165 C 
BRANCH   7   8
HETATM    8  C   UNL     1     -38.880 -49.848  12.931  1.00  0.00     0.168 C 
HETATM    9  C   UNL     1     -38.293 -49.504  14.316  1.00  0.00     0.050 C 
HETATM   10  C   UNL     1     -37.783 -50.628  12.156  1.00  0.00     0.050 C 
BRANCH   8  11
HETATM   11  N   UNL     1     -40.166 -50.620  12.918  1.00  0.00     0.102 N 
HETATM   12  C   UNL     1     -41.141 -50.313  13.986  1.00  0.00     0.303 C 
HETATM   13  C   UNL     1     -40.923 -51.036  15.339  1.00  0.00     0.302 C 
HETATM   14  N   UNL     1     -40.713 -52.492  15.267  1.00  0.00     0.087 N 
HETATM   15  C   UNL     1     -41.977 -53.215  15.212  1.00  0.00     0.310 C 
HETATM   16  C   UNL     1     -39.830 -52.857  14.144  1.00  0.00     0.302 C 
HETATM   17  C   UNL     1     -40.072 -52.093  12.819  1.00  0.00     0.303 C 
ENDBRANCH   8  11
ENDBRANCH   7   8
ENDBRANCH   1   7
BRANCH   4  18
HETATM   18  C   UNL     1     -43.098 -47.658   9.730  1.00  0.00     0.168 A 
HETATM   19  N   UNL     1     -44.186 -47.973  10.390  1.00  0.00    -0.279 N 
HETATM   20  N   UNL     1     -45.300 -47.322   9.892  1.00  0.00    -0.303 N 
ATOM     21  HN  UNL     1     -44.209 -48.620  11.177  1.00  0.00     0.189 HD
HETATM   22  C   UNL     1     -44.991 -46.546   8.878  1.00  0.00     0.160 A 
ATOM     23  HN  UNL     1     -46.243 -47.430  10.266  1.00  0.00     0.186 HD
HETATM   24  S   UNL     1     -43.318 -46.502   8.491  1.00  0.00    -0.046 SA
ENDBRANCH   4  18
TORSDOF 4
ENDMDL
MODEL 8
REMARK VINA RESULT:      -5.4      2.116      3.495
REMARK  4 active torsions:
REMARK  status: ('A' for Active; 'I' for Inactive)
REMARK    1  A    between atoms: N_5  and  C_8 
REMARK    2  A    between atoms: C_8  and  C_11 
REMARK    3  A    between atoms: C_11  and  N_12 
REMARK       I    between atoms: N_12  and  C_13 
REMARK       I    between atoms: C_13  and  N_15 
REMARK    4  A    between atoms: N_15  and  C_16 
ROOT
HETATM    1  N   UNL     1     -42.085 -50.192  11.870  1.00  0.00    -0.340 N 
HETATM    2  C   UNL     1     -42.571 -48.907  11.704  1.00  0.00     0.322 C 
HETATM    3  O   UNL     1     -43.116 -48.297  12.614  1.00  0.00    -0.247 OA
HETATM    4  N   UNL     1     -42.432 -48.475  10.412  1.00  0.00    -0.288 N 
HETATM    5  H   UNL     1     -41.300 -50.498  11.311  1.00  0.00     0.164 HD
HETATM    6  H   UNL     1     -42.234 -49.148   9.692  1.00  0.00     0.172 HD
ENDROOT
BRANCH   1   7
HETATM    7  C   UNL     1     -42.265 -50.869  13.142  1.00  0.00     0.165 C 
BRANCH   7   8
HETATM    8  C   UNL     1     -42.123 -52.431  13.069  1.00  0.00     0.168 C 
HETATM    9  C   UNL     1     -41.040 -52.689  12.000  1.00  0.00     0.050 C 
HETATM   10  C   UNL     1     -43.460 -52.980  12.500  1.00  0.00     0.050 C 
BRANCH   8  11
HETATM   11  N   UNL     1     -41.871 -53.002  14.434  1.00  0.00     0.102 N 
HETATM   12  C   UNL     1     -41.150 -52.142  15.396  1.00  0.00     0.303 C 
HETATM   13  C   UNL     1     -39.605 -52.154  15.297  1.00  0.00     0.302 C 
HETATM   14  N   UNL     1     -38.969 -53.482  15.251  1.00  0.00     0.087 N 
HETATM   15  C   UNL     1     -38.777 -54.032  16.586  1.00  0.00     0.310 C 
HETATM   16  C   UNL     1     -39.719 -54.410  14.385  1.00  0.00     0.302 C 
HETATM   17  C   UNL     1     -41.262 -54.348  14.503  1.00  0.00     0.303 C 
ENDBRANCH   8  11
ENDBRANCH   7   8
ENDBRANCH   1   7
BRANCH   4  18
HETATM   18  C   UNL     1     -42.964 -47.272  10.032  1.00  0.00     0.168 A 
HETATM   19  N   UNL     1     -43.003 -46.127  10.669  1.00  0.00    -0.279 N 
HETATM   20  N   UNL     1     -43.704 -45.165   9.965  1.00  0.00    -0.303 N 
ATOM     21  HN  UNL     1     -42.569 -45.964  11.577  1.00  0.00     0.189 HD
HETATM   22  C   UNL     1     -44.159 -45.639   8.827  1.00  0.00     0.160 A 
ATOM     23  HN  UNL     1     -43.850 -44.209  10.288  1.00  0.00     0.186 HD
HETATM   24  S   UNL     1     -43.719 -47.267   8.499  1.00  0.00    -0.046 SA
ENDBRANCH   4  18
TORSDOF 4
ENDMDL
MODEL 9
REMARK VINA RESULT:      -5.3      2.228      3.548
REMARK  4 active torsions:
REMARK  status: ('A' for Active; 'I' for Inactive)
REMARK    1  A    between atoms: N_5  and  C_8 
REMARK    2  A    between atoms: C_8  and  C_11 
REMARK    3  A    between atoms: C_11  and  N_12 
REMARK       I    between atoms: N_12  and  C_13 
REMARK       I    between atoms: C_13  and  N_15 
REMARK    4  A    between atoms: N_15  and  C_16 
ROOT
HETATM    1  N   UNL     1     -44.114 -50.621  12.844  1.00  0.00    -0.340 N 
HETATM    2  C   UNL     1     -43.517 -49.374  12.908  1.00  0.00     0.322 C 
HETATM    3  O   UNL     1     -43.230 -48.847  13.974  1.00  0.00    -0.247 OA
HETATM    4  N   UNL     1     -43.381 -48.813  11.666  1.00  0.00    -0.288 N 
HETATM    5  H   UNL     1     -43.950 -51.205  12.035  1.00  0.00     0.164 HD
HETATM    6  H   UNL     1     -43.898 -49.200  10.897  1.00  0.00     0.172 HD
ENDROOT
BRANCH   1   7
HETATM    7  C   UNL     1     -44.461 -51.315  14.072  1.00  0.00     0.165 C 
BRANCH   7   8
HETATM    8  C   UNL     1     -45.783 -52.158  13.986  1.00  0.00     0.168 C 
HETATM    9  C   UNL     1     -46.276 -51.989  12.534  1.00  0.00     0.050 C 
HETATM   10  C   UNL     1     -46.825 -51.459  14.901  1.00  0.00     0.050 C 
BRANCH   8  11
HETATM   11  N   UNL     1     -45.544 -53.563  14.457  1.00  0.00     0.102 N 
HETATM   12  C   UNL     1     -45.187 -53.739  15.880  1.00  0.00     0.303 C 
HETATM   13  C   UNL     1     -43.692 -53.551  16.238  1.00  0.00     0.302 C 
HETATM   14  N   UNL     1     -42.729 -54.278  15.395  1.00  0.00     0.087 N 
HETATM   15  C   UNL     1     -42.549 -55.652  15.848  1.00  0.00     0.310 C 
HETATM   16  C   UNL     1     -43.105 -54.221  13.971  1.00  0.00     0.302 C 
HETATM   17  C   UNL     1     -44.613 -54.394  13.663  1.00  0.00     0.303 C 
ENDBRANCH   8  11
ENDBRANCH   7   8
ENDBRANCH   1   7
BRANCH   4  18
HETATM   18  C   UNL     1     -42.918 -47.530  11.543  1.00  0.00     0.168 A 
HETATM   19  N   UNL     1     -43.416 -46.405  11.996  1.00  0.00    -0.279 N 
HETATM   20  N   UNL     1     -42.679 -45.309  11.586  1.00  0.00    -0.303 N 
ATOM     21  HN  UNL     1     -44.249 -46.345  12.580  1.00  0.00     0.189 HD
HETATM   22  C   UNL     1     -41.657 -45.669  10.842  1.00  0.00     0.160 A 
ATOM     23  HN  UNL     1     -42.900 -44.344  11.831  1.00  0.00     0.186 HD
HETATM   24  S   UNL     1     -41.480 -47.365  10.634  1.00  0.00    -0.046 SA
ENDBRANCH   4  18
TORSDOF 4
ENDMDL
