MODEL 1
REMARK VINA RESULT:      -6.2      0.000      0.000
REMARK  5 active torsions:
REMARK  status: ('A' for Active; 'I' for Inactive)
REMARK    1  A    between atoms: O_1  and  C_2 
REMARK    2  A    between atoms: C_2  and  C_3 
REMARK    3  A    between atoms: C_2  and  C_16 
REMARK    4  A    between atoms: C_3  and  N_4 
REMARK    5  A    between atoms: C_16  and  C_17 
ROOT
HETATM    1  N   UNL     1     -41.759 -50.036  12.057  1.00  0.00    -0.271 N 
HETATM    2  N   UNL     1     -40.762 -50.773  11.527  1.00  0.00    -0.019 NA
HETATM    3  N   UNL     1     -41.111 -52.047  11.630  1.00  0.00    -0.282 N 
ATOM      4  HN  UNL     1     -40.564 -52.845  11.309  1.00  0.00     0.184 HD
HETATM    5  C   UNL     1     -42.333 -52.106  12.241  1.00  0.00     0.075 A 
HETATM    6  C   UNL     1     -43.141 -53.206  12.557  1.00  0.00     0.058 A 
HETATM    7  C   UNL     1     -44.367 -52.975  13.196  1.00  0.00     0.058 A 
HETATM    8 CL   UNL     1     -45.342 -54.360  13.556  1.00  0.00    -0.082 Cl
HETATM    9  C   UNL     1     -44.775 -51.673  13.523  1.00  0.00     0.058 A 
HETATM   10 CL   UNL     1     -46.278 -51.352  14.318  1.00  0.00    -0.082 Cl
HETATM   11  C   UNL     1     -43.975 -50.563  13.205  1.00  0.00     0.058 A 
HETATM   12  C   UNL     1     -42.762 -50.819  12.556  1.00  0.00     0.078 A 
ENDROOT
BRANCH   1  13
HETATM   13  C   UNL     1     -41.696 -48.592  11.950  1.00  0.00     0.178 C 
BRANCH  13  14
HETATM   14  C   UNL     1     -41.988 -48.039  10.543  1.00  0.00     0.146 C 
BRANCH  14  15
HETATM   15  O   UNL     1     -41.045 -47.016  10.195  1.00  0.00    -0.394 OA
HETATM   16  H   UNL     1     -40.236 -47.132  10.739  1.00  0.00     0.210 HD
ENDBRANCH  14  15
BRANCH  14  17
HETATM   17  C   UNL     1     -43.397 -47.506  10.285  1.00  0.00     0.150 C 
BRANCH  17  18
HETATM   18  C   UNL     1     -43.782 -47.482   8.823  1.00  0.00     0.390 C 
HETATM   19  F   UNL     1     -45.018 -47.984   8.606  1.00  0.00    -0.171 F 
HETATM   20  F   UNL     1     -43.778 -46.216   8.350  1.00  0.00    -0.171 F 
HETATM   21  F   UNL     1     -42.919 -48.202   8.076  1.00  0.00    -0.171 F 
ENDBRANCH  17  18
ENDBRANCH  14  17
ENDBRANCH  13  14
ENDBRANCH   1  13
TORSDOF 5
ENDMDL
MODEL 2
REMARK VINA RESULT:      -6.0      5.570      6.574
REMARK  5 active torsions:
REMARK  status: ('A' for Active; 'I' for Inactive)
REMARK    1  A    between atoms: O_1  and  C_2 
REMARK    2  A    between atoms: C_2  and  C_3 
REMARK    3  A    between atoms: C_2  and  C_16 
REMARK    4  A    between atoms: C_3  and  N_4 
REMARK    5  A    between atoms: C_16  and  C_17 
ROOT
HETATM    1  N   UNL     1     -44.273 -54.094  13.397  1.00  0.00    -0.271 N 
HETATM    2  N   UNL     1     -44.397 -53.464  12.211  1.00  0.00    -0.019 NA
HETATM    3  N   UNL     1     -43.184 -53.091  11.830  1.00  0.00    -0.282 N 
ATOM      4  HN  UNL     1     -42.952 -52.598  10.968  1.00  0.00     0.184 HD
HETATM    5  C   UNL     1     -42.296 -53.483  12.793  1.00  0.00     0.075 A 
HETATM    6  C   UNL     1     -40.902 -53.350  12.855  1.00  0.00     0.058 A 
HETATM    7  C   UNL     1     -40.231 -53.848  13.980  1.00  0.00     0.058 A 
HETATM    8 CL   UNL     1     -38.508 -53.678  14.010  1.00  0.00    -0.082 Cl
HETATM    9  C   UNL     1     -40.937 -54.458  15.029  1.00  0.00     0.058 A 
HETATM   10 CL   UNL     1     -40.141 -55.078  16.434  1.00  0.00    -0.082 Cl
HETATM   11  C   UNL     1     -42.333 -54.602  14.974  1.00  0.00     0.058 A 
HETATM   12  C   UNL     1     -42.978 -54.107  13.834  1.00  0.00     0.078 A 
ENDROOT
BRANCH   1  13
HETATM   13  C   UNL     1     -45.439 -54.727  13.979  1.00  0.00     0.178 C 
BRANCH  13  14
HETATM   14  C   UNL     1     -46.037 -53.985  15.189  1.00  0.00     0.146 C 
BRANCH  14  15
HETATM   15  O   UNL     1     -46.459 -54.916  16.196  1.00  0.00    -0.394 OA
HETATM   16  H   UNL     1     -47.422 -55.076  16.096  1.00  0.00     0.210 HD
ENDBRANCH  14  15
BRANCH  14  17
HETATM   17  C   UNL     1     -47.188 -53.019  14.911  1.00  0.00     0.150 C 
BRANCH  17  18
HETATM   18  C   UNL     1     -46.754 -51.578  14.766  1.00  0.00     0.390 C 
HETATM   19  F   UNL     1     -45.426 -51.418  14.951  1.00  0.00    -0.171 F 
HETATM   20  F   UNL     1     -47.043 -51.116  13.529  1.00  0.00    -0.171 F 
HETATM   21  F   UNL     1     -47.383 -50.784  15.658  1.00  0.00    -0.171 F 
ENDBRANCH  17  18
ENDBRANCH  14  17
ENDBRANCH  13  14
ENDBRANCH   1  13
TORSDOF 5
ENDMDL
MODEL 3
REMARK VINA RESULT:      -6.0      2.696      3.534
REMARK  5 active torsions:
REMARK  status: ('A' for Active; 'I' for Inactive)
REMARK    1  A    between atoms: O_1  and  C_2 
REMARK    2  A    between atoms: C_2  and  C_3 
REMARK    3  A    between atoms: C_2  and  C_16 
REMARK    4  A    between atoms: C_3  and  N_4 
REMARK    5  A    between atoms: C_16  and  C_17 
ROOT
HETATM    1  N   UNL     1     -41.855 -47.069  10.975  1.00  0.00    -0.271 N 
HETATM    2  N   UNL     1     -40.654 -46.540  10.666  1.00  0.00    -0.019 NA
HETATM    3  N   UNL     1     -39.730 -47.431  10.996  1.00  0.00    -0.282 N 
ATOM      4  HN  UNL     1     -38.723 -47.323  10.875  1.00  0.00     0.184 HD
HETATM    5  C   UNL     1     -40.360 -48.522  11.526  1.00  0.00     0.075 A 
HETATM    6  C   UNL     1     -39.840 -49.734  12.001  1.00  0.00     0.058 A 
HETATM    7  C   UNL     1     -40.729 -50.695  12.501  1.00  0.00     0.058 A 
HETATM    8 CL   UNL     1     -40.048 -52.184  13.063  1.00  0.00    -0.082 Cl
HETATM    9  C   UNL     1     -42.111 -50.449  12.538  1.00  0.00     0.058 A 
HETATM   10 CL   UNL     1     -43.236 -51.609  13.155  1.00  0.00    -0.082 Cl
HETATM   11  C   UNL     1     -42.643 -49.240  12.059  1.00  0.00     0.058 A 
HETATM   12  C   UNL     1     -41.735 -48.302  11.553  1.00  0.00     0.078 A 
ENDROOT
BRANCH   1  13
HETATM   13  C   UNL     1     -43.055 -46.354  10.590  1.00  0.00     0.178 C 
BRANCH  13  14
HETATM   14  C   UNL     1     -43.571 -46.681   9.175  1.00  0.00     0.146 C 
BRANCH  14  15
HETATM   15  O   UNL     1     -42.748 -46.056   8.180  1.00  0.00    -0.394 OA
HETATM   16  H   UNL     1     -41.967 -46.625   8.012  1.00  0.00     0.210 HD
ENDBRANCH  14  15
BRANCH  14  17
HETATM   17  C   UNL     1     -45.032 -46.348   8.875  1.00  0.00     0.150 C 
BRANCH  17  18
HETATM   18  C   UNL     1     -45.971 -47.522   9.032  1.00  0.00     0.390 C 
HETATM   19  F   UNL     1     -45.648 -48.302  10.087  1.00  0.00    -0.171 F 
HETATM   20  F   UNL     1     -47.238 -47.096   9.224  1.00  0.00    -0.171 F 
HETATM   21  F   UNL     1     -45.962 -48.307   7.935  1.00  0.00    -0.171 F 
ENDBRANCH  17  18
ENDBRANCH  14  17
ENDBRANCH  13  14
ENDBRANCH   1  13
TORSDOF 5
ENDMDL
MODEL 4
REMARK VINA RESULT:      -6.0      1.451      1.895
REMARK  5 active torsions:
REMARK  status: ('A' for Active; 'I' for Inactive)
REMARK    1  A    between atoms: O_1  and  C_2 
REMARK    2  A    between atoms: C_2  and  C_3 
REMARK    3  A    between atoms: C_2  and  C_16 
REMARK    4  A    between atoms: C_3  and  N_4 
REMARK    5  A    between atoms: C_16  and  C_17 
ROOT
HETATM    1  N   UNL     1     -41.328 -51.373  12.668  1.00  0.00    -0.271 N 
HETATM    2  N   UNL     1     -40.467 -52.328  12.261  1.00  0.00    -0.019 NA
HETATM    3  N   UNL     1     -41.087 -53.494  12.369  1.00  0.00    -0.282 N 
ATOM      4  HN  UNL     1     -40.695 -54.405  12.128  1.00  0.00     0.184 HD
HETATM    5  C   UNL     1     -42.343 -53.266  12.858  1.00  0.00     0.075 A 
HETATM    6  C   UNL     1     -43.391 -54.156  13.128  1.00  0.00     0.058 A 
HETATM    7  C   UNL     1     -44.592 -53.642  13.636  1.00  0.00     0.058 A 
HETATM    8 CL   UNL     1     -45.867 -54.773  13.941  1.00  0.00    -0.082 Cl
HETATM    9  C   UNL     1     -44.742 -52.268  13.881  1.00  0.00     0.058 A 
HETATM   10 CL   UNL     1     -46.207 -51.601  14.514  1.00  0.00    -0.082 Cl
HETATM   11  C   UNL     1     -43.699 -51.367  13.609  1.00  0.00     0.058 A 
HETATM   12  C   UNL     1     -42.515 -51.903  13.090  1.00  0.00     0.078 A 
ENDROOT
BRANCH   1  13
HETATM   13  C   UNL     1     -40.950 -49.981  12.523  1.00  0.00     0.178 C 
BRANCH  13  14
HETATM   14  C   UNL     1     -41.201 -49.391  11.122  1.00  0.00     0.146 C 
BRANCH  14  15
HETATM   15  O   UNL     1     -40.281 -49.942  10.168  1.00  0.00    -0.394 OA
HETATM   16  H   UNL     1     -39.978 -50.818  10.491  1.00  0.00     0.210 HD
ENDBRANCH  14  15
BRANCH  14  17
HETATM   17  C   UNL     1     -41.174 -47.868  10.996  1.00  0.00     0.150 C 
BRANCH  17  18
HETATM   18  C   UNL     1     -42.321 -47.302  10.189  1.00  0.00     0.390 C 
HETATM   19  F   UNL     1     -42.059 -46.063   9.719  1.00  0.00    -0.171 F 
HETATM   20  F   UNL     1     -42.585 -48.086   9.122  1.00  0.00    -0.171 F 
HETATM   21  F   UNL     1     -43.447 -47.221  10.929  1.00  0.00    -0.171 F 
ENDBRANCH  17  18
ENDBRANCH  14  17
ENDBRANCH  13  14
ENDBRANCH   1  13
TORSDOF 5
ENDMDL
MODEL 5
REMARK VINA RESULT:      -5.8      4.931      6.066
REMARK  5 active torsions:
REMARK  status: ('A' for Active; 'I' for Inactive)
REMARK    1  A    between atoms: O_1  and  C_2 
REMARK    2  A    between atoms: C_2  and  C_3 
REMARK    3  A    between atoms: C_2  and  C_16 
REMARK    4  A    between atoms: C_3  and  N_4 
REMARK    5  A    between atoms: C_16  and  C_17 
ROOT
HETATM    1  N   UNL     1     -42.610 -53.779  13.417  1.00  0.00    -0.271 N 
HETATM    2  N   UNL     1     -42.155 -54.636  14.354  1.00  0.00    -0.019 NA
HETATM    3  N   UNL     1     -40.915 -54.277  14.654  1.00  0.00    -0.282 N 
ATOM      4  HN  UNL     1     -40.309 -54.731  15.337  1.00  0.00     0.184 HD
HETATM    5  C   UNL     1     -40.589 -53.192  13.889  1.00  0.00     0.075 A 
HETATM    6  C   UNL     1     -39.416 -52.428  13.845  1.00  0.00     0.058 A 
HETATM    7  C   UNL     1     -39.349 -51.352  12.949  1.00  0.00     0.058 A 
HETATM    8 CL   UNL     1     -37.888 -50.424  12.938  1.00  0.00    -0.082 Cl
HETATM    9  C   UNL     1     -40.429 -51.050  12.104  1.00  0.00     0.058 A 
HETATM   10 CL   UNL     1     -40.379 -49.734  10.982  1.00  0.00    -0.082 Cl
HETATM   11  C   UNL     1     -41.612 -51.806  12.144  1.00  0.00     0.058 A 
HETATM   12  C   UNL     1     -41.658 -52.867  13.056  1.00  0.00     0.078 A 
ENDROOT
BRANCH   1  13
HETATM   13  C   UNL     1     -43.997 -53.862  13.006  1.00  0.00     0.178 C 
BRANCH  13  14
HETATM   14  C   UNL     1     -45.016 -53.584  14.127  1.00  0.00     0.146 C 
BRANCH  14  15
HETATM   15  O   UNL     1     -45.195 -54.746  14.949  1.00  0.00    -0.394 OA
HETATM   16  H   UNL     1     -46.108 -54.742  15.310  1.00  0.00     0.210 HD
ENDBRANCH  14  15
BRANCH  14  17
HETATM   17  C   UNL     1     -46.394 -53.075  13.703  1.00  0.00     0.150 C 
BRANCH  17  18
HETATM   18  C   UNL     1     -46.464 -51.575  13.528  1.00  0.00     0.390 C 
HETATM   19  F   UNL     1     -45.246 -50.992  13.580  1.00  0.00    -0.171 F 
HETATM   20  F   UNL     1     -47.006 -51.260  12.331  1.00  0.00    -0.171 F 
HETATM   21  F   UNL     1     -47.223 -51.005  14.487  1.00  0.00    -0.171 F 
ENDBRANCH  17  18
ENDBRANCH  14  17
ENDBRANCH  13  14
ENDBRANCH   1  13
TORSDOF 5
ENDMDL
MODEL 6
REMARK VINA RESULT:      -5.6      6.069      6.928
REMARK  5 active torsions:
REMARK  status: ('A' for Active; 'I' for Inactive)
REMARK    1  A    between atoms: O_1  and  C_2 
REMARK    2  A    between atoms: C_2  and  C_3 
REMARK    3  A    between atoms: C_2  and  C_16 
REMARK    4  A    between atoms: C_3  and  N_4 
REMARK    5  A    between atoms: C_16  and  C_17 
ROOT
HETATM    1  N   UNL     1     -45.145 -53.537  13.765  1.00  0.00    -0.271 N 
HETATM    2  N   UNL     1     -45.203 -53.224  12.454  1.00  0.00    -0.019 NA
HETATM    3  N   UNL     1     -43.974 -53.315  11.968  1.00  0.00    -0.282 N 
ATOM      4  HN  UNL     1     -43.698 -53.144  11.001  1.00  0.00     0.184 HD
HETATM    5  C   UNL     1     -43.138 -53.676  12.988  1.00  0.00     0.075 A 
HETATM    6  C   UNL     1     -41.759 -53.924  12.992  1.00  0.00     0.058 A 
HETATM    7  C   UNL     1     -41.145 -54.283  14.200  1.00  0.00     0.058 A 
HETATM    8 CL   UNL     1     -39.443 -54.596  14.158  1.00  0.00    -0.082 Cl
HETATM    9  C   UNL     1     -41.891 -54.382  15.385  1.00  0.00     0.058 A 
HETATM   10 CL   UNL     1     -41.166 -54.815  16.895  1.00  0.00    -0.082 Cl
HETATM   11  C   UNL     1     -43.275 -54.140  15.391  1.00  0.00     0.058 A 
HETATM   12  C   UNL     1     -43.866 -53.797  14.170  1.00  0.00     0.078 A 
ENDROOT
BRANCH   1  13
HETATM   13  C   UNL     1     -46.380 -53.650  14.514  1.00  0.00     0.178 C 
BRANCH  13  14
HETATM   14  C   UNL     1     -46.941 -52.312  15.033  1.00  0.00     0.146 C 
BRANCH  14  15
HETATM   15  O   UNL     1     -46.839 -51.295  14.026  1.00  0.00    -0.394 OA
HETATM   16  H   UNL     1     -45.889 -51.113  13.856  1.00  0.00     0.210 HD
ENDBRANCH  14  15
BRANCH  14  17
HETATM   17  C   UNL     1     -46.348 -51.768  16.332  1.00  0.00     0.150 C 
BRANCH  17  18
HETATM   18  C   UNL     1     -47.384 -51.272  17.316  1.00  0.00     0.390 C 
HETATM   19  F   UNL     1     -47.013 -50.122  17.920  1.00  0.00    -0.171 F 
HETATM   20  F   UNL     1     -48.558 -51.033  16.691  1.00  0.00    -0.171 F 
HETATM   21  F   UNL     1     -47.612 -52.181  18.287  1.00  0.00    -0.171 F 
ENDBRANCH  17  18
ENDBRANCH  14  17
ENDBRANCH  13  14
ENDBRANCH   1  13
TORSDOF 5
ENDMDL
MODEL 7
REMARK VINA RESULT:      -5.5      4.157      4.644
REMARK  5 active torsions:
REMARK  status: ('A' for Active; 'I' for Inactive)
REMARK    1  A    between atoms: O_1  and  C_2 
REMARK    2  A    between atoms: C_2  and  C_3 
REMARK    3  A    between atoms: C_2  and  C_16 
REMARK    4  A    between atoms: C_3  and  N_4 
REMARK    5  A    between atoms: C_16  and  C_17 
ROOT
HETATM    1  N   UNL     1     -41.541 -51.974  12.319  1.00  0.00    -0.271 N 
HETATM    2  N   UNL     1     -40.758 -53.062  12.175  1.00  0.00    -0.019 NA
HETATM    3  N   UNL     1     -41.449 -54.109  12.601  1.00  0.00    -0.282 N 
ATOM      4  HN  UNL     1     -41.125 -55.076  12.612  1.00  0.00     0.184 HD
HETATM    5  C   UNL     1     -42.672 -53.668  13.025  1.00  0.00     0.075 A 
HETATM    6  C   UNL     1     -43.767 -54.376  13.538  1.00  0.00     0.058 A 
HETATM    7  C   UNL     1     -44.916 -53.660  13.902  1.00  0.00     0.058 A 
HETATM    8 CL   UNL     1     -46.253 -54.573  14.515  1.00  0.00    -0.082 Cl
HETATM    9  C   UNL     1     -44.968 -52.264  13.767  1.00  0.00     0.058 A 
HETATM   10 CL   UNL     1     -46.367 -51.349  14.213  1.00  0.00    -0.082 Cl
HETATM   11  C   UNL     1     -43.878 -51.546  13.250  1.00  0.00     0.058 A 
HETATM   12  C   UNL     1     -42.747 -52.285  12.882  1.00  0.00     0.078 A 
ENDROOT
BRANCH   1  13
HETATM   13  C   UNL     1     -41.078 -50.703  11.798  1.00  0.00     0.178 C 
BRANCH  13  14
HETATM   14  C   UNL     1     -40.011 -50.005  12.663  1.00  0.00     0.146 C 
BRANCH  14  15
HETATM   15  O   UNL     1     -40.345 -48.625  12.863  1.00  0.00    -0.394 OA
HETATM   16  H   UNL     1     -39.529 -48.085  12.770  1.00  0.00     0.210 HD
ENDBRANCH  14  15
BRANCH  14  17
HETATM   17  C   UNL     1     -38.563 -50.089  12.181  1.00  0.00     0.150 C 
BRANCH  17  18
HETATM   18  C   UNL     1     -37.658 -50.878  13.100  1.00  0.00     0.390 C 
HETATM   19  F   UNL     1     -38.316 -51.860  13.754  1.00  0.00    -0.171 F 
HETATM   20  F   UNL     1     -36.662 -51.462  12.400  1.00  0.00    -0.171 F 
HETATM   21  F   UNL     1     -37.094 -50.082  14.033  1.00  0.00    -0.171 F 
ENDBRANCH  17  18
ENDBRANCH  14  17
ENDBRANCH  13  14
ENDBRANCH   1  13
TORSDOF 5
ENDMDL
MODEL 8
REMARK VINA RESULT:      -5.5      4.725      5.474
REMARK  5 active torsions:
REMARK  status: ('A' for Active; 'I' for Inactive)
REMARK    1  A    between atoms: O_1  and  C_2 
REMARK    2  A    between atoms: C_2  and  C_3 
REMARK    3  A    between atoms: C_2  and  C_16 
REMARK    4  A    between atoms: C_3  and  N_4 
REMARK    5  A    between atoms: C_16  and  C_17 
ROOT
HETATM    1  N   UNL     1     -40.541 -46.145  11.960  1.00  0.00    -0.271 N 
HETATM    2  N   UNL     1     -40.779 -45.193  12.885  1.00  0.00    -0.019 NA
HETATM    3  N   UNL     1     -40.095 -45.517  13.974  1.00  0.00    -0.282 N 
ATOM      4  HN  UNL     1     -40.067 -44.985  14.843  1.00  0.00     0.184 HD
HETATM    5  C   UNL     1     -39.434 -46.688  13.729  1.00  0.00     0.075 A 
HETATM    6  C   UNL     1     -38.565 -47.431  14.540  1.00  0.00     0.058 A 
HETATM    7  C   UNL     1     -38.020 -48.617  14.029  1.00  0.00     0.058 A 
HETATM    8 CL   UNL     1     -36.940 -49.496  15.057  1.00  0.00    -0.082 Cl
HETATM    9  C   UNL     1     -38.344 -49.060  12.737  1.00  0.00     0.058 A 
HETATM   10 CL   UNL     1     -37.695 -50.522  12.077  1.00  0.00    -0.082 Cl
HETATM   11  C   UNL     1     -39.209 -48.320  11.914  1.00  0.00     0.058 A 
HETATM   12  C   UNL     1     -39.729 -47.134  12.443  1.00  0.00     0.078 A 
ENDROOT
BRANCH   1  13
HETATM   13  C   UNL     1     -41.062 -45.965  10.620  1.00  0.00     0.178 C 
BRANCH  13  14
HETATM   14  C   UNL     1     -42.516 -46.434  10.427  1.00  0.00     0.146 C 
BRANCH  14  15
HETATM   15  O   UNL     1     -43.191 -46.525  11.689  1.00  0.00    -0.394 OA
HETATM   16  H   UNL     1     -44.124 -46.786  11.532  1.00  0.00     0.210 HD
ENDBRANCH  14  15
BRANCH  14  17
HETATM   17  C   UNL     1     -42.728 -47.746   9.671  1.00  0.00     0.150 C 
BRANCH  17  18
HETATM   18  C   UNL     1     -43.510 -47.590   8.386  1.00  0.00     0.390 C 
HETATM   19  F   UNL     1     -43.517 -46.316   7.937  1.00  0.00    -0.171 F 
HETATM   20  F   UNL     1     -42.978 -48.355   7.408  1.00  0.00    -0.171 F 
HETATM   21  F   UNL     1     -44.796 -47.966   8.548  1.00  0.00    -0.171 F 
ENDBRANCH  17  18
ENDBRANCH  14  17
ENDBRANCH  13  14
ENDBRANCH   1  13
TORSDOF 5
ENDMDL
MODEL 9
REMARK VINA RESULT:      -5.4      5.805      6.664
REMARK  5 active torsions:
REMARK  status: ('A' for Active; 'I' for Inactive)
REMARK    1  A    between atoms: O_1  and  C_2 
REMARK    2  A    between atoms: C_2  and  C_3 
REMARK    3  A    between atoms: C_2  and  C_16 
REMARK    4  A    between atoms: C_3  and  N_4 
REMARK    5  A    between atoms: C_16  and  C_17 
ROOT
HETATM    1  N   UNL     1     -43.119 -54.295  14.009  1.00  0.00    -0.271 N 
HETATM    2  N   UNL     1     -42.688 -53.584  12.948  1.00  0.00    -0.019 NA
HETATM    3  N   UNL     1     -41.364 -53.572  12.987  1.00  0.00    -0.282 N 
ATOM      4  HN  UNL     1     -40.749 -53.118  12.312  1.00  0.00     0.184 HD
HETATM    5  C   UNL     1     -40.964 -54.273  14.090  1.00  0.00     0.075 A 
HETATM    6  C   UNL     1     -39.679 -54.572  14.564  1.00  0.00     0.058 A 
HETATM    7  C   UNL     1     -39.557 -55.320  15.743  1.00  0.00     0.058 A 
HETATM    8 CL   UNL     1     -37.953 -55.681  16.285  1.00  0.00    -0.082 Cl
HETATM    9  C   UNL     1     -40.693 -55.754  16.442  1.00  0.00     0.058 A 
HETATM   10 CL   UNL     1     -40.579 -56.673  17.904  1.00  0.00    -0.082 Cl
HETATM   11  C   UNL     1     -41.985 -55.465  15.973  1.00  0.00     0.058 A 
HETATM   12  C   UNL     1     -42.081 -54.727  14.788  1.00  0.00     0.078 A 
ENDROOT
BRANCH   1  13
HETATM   13  C   UNL     1     -44.533 -54.582  14.134  1.00  0.00     0.178 C 
BRANCH  13  14
HETATM   14  C   UNL     1     -45.258 -53.779  15.230  1.00  0.00     0.146 C 
BRANCH  14  15
HETATM   15  O   UNL     1     -45.461 -54.586  16.398  1.00  0.00    -0.394 OA
HETATM   16  H   UNL     1     -44.675 -55.160  16.528  1.00  0.00     0.210 HD
ENDBRANCH  14  15
BRANCH  14  17
HETATM   17  C   UNL     1     -46.590 -53.132  14.852  1.00  0.00     0.150 C 
BRANCH  17  18
HETATM   18  C   UNL     1     -46.450 -51.943  13.928  1.00  0.00     0.390 C 
HETATM   19  F   UNL     1     -46.702 -52.258  12.639  1.00  0.00    -0.171 F 
HETATM   20  F   UNL     1     -47.317 -50.966  14.276  1.00  0.00    -0.171 F 
HETATM   21  F   UNL     1     -45.205 -51.426  13.980  1.00  0.00    -0.171 F 
ENDBRANCH  17  18
ENDBRANCH  14  17
ENDBRANCH  13  14
ENDBRANCH   1  13
TORSDOF 5
ENDMDL
