MODEL 1
REMARK VINA RESULT:      -5.5      0.000      0.000
REMARK  5 active torsions:
REMARK  status: ('A' for Active; 'I' for Inactive)
REMARK    1  A    between atoms: C_2  and  C_3 
REMARK    2  A    between atoms: C_3  and  C_4 
REMARK    3  A    between atoms: C_4  and  N_5 
REMARK    4  A    between atoms: C_6  and  N_7 
REMARK    5  A    between atoms: C_8  and  N_9 
ROOT
HETATM    1  N   UNL     1     -42.390 -46.262  10.100  1.00  0.00    -0.288 N 
HETATM    2  C   UNL     1     -41.719 -47.407  10.509  1.00  0.00     0.116 A 
HETATM    3  C   UNL     1     -40.987 -47.422  11.651  1.00  0.00     0.138 A 
HETATM    4  C   UNL     1     -40.870 -46.153  12.439  1.00  0.00     0.279 A 
HETATM    5  O   UNL     1     -40.145 -46.046  13.424  1.00  0.00    -0.265 OA
HETATM    6  N   UNL     1     -41.626 -45.109  11.989  1.00  0.00    -0.273 N 
HETATM    7  C   UNL     1     -42.359 -45.084  10.840  1.00  0.00     0.330 A 
HETATM    8  O   UNL     1     -42.923 -44.041  10.511  1.00  0.00    -0.246 OA
HETATM    9  H   UNL     1     -41.567 -44.248  12.508  1.00  0.00     0.173 HD
ENDROOT
BRANCH   3  10
HETATM   10  N   UNL     1     -40.283 -48.562  12.058  1.00  0.00    -0.370 N 
HETATM   11  C   UNL     1     -38.820 -48.655  12.019  1.00  0.00     0.149 C 
HETATM   12  C   UNL     1     -38.473 -50.052  11.475  1.00  0.00     0.187 C 
HETATM   13  O   UNL     1     -39.029 -51.094  12.301  1.00  0.00    -0.388 OA
HETATM   14  C   UNL     1     -40.462 -50.974  12.403  1.00  0.00     0.187 C 
HETATM   15  C   UNL     1     -40.886 -49.590  12.923  1.00  0.00     0.149 C 
ENDBRANCH   3  10
BRANCH   2  16
HETATM   16  N   UNL     1     -41.732 -48.571   9.737  1.00  0.00    -0.286 NA
HETATM   17  H   UNL     1     -40.850 -49.065   9.772  1.00  0.00     0.125 HD
HETATM   18  H   UNL     1     -42.495 -49.167  10.060  1.00  0.00     0.125 HD
ENDBRANCH   2  16
BRANCH   1  19
HETATM   19  C   UNL     1     -43.158 -46.261   8.847  1.00  0.00     0.135 C 
BRANCH  19  20
HETATM   20  C   UNL     1     -44.663 -46.449   9.058  1.00  0.00     0.020 C 
BRANCH  20  21
HETATM   21  C   UNL     1     -45.134 -47.813   8.558  1.00  0.00    -0.003 C 
HETATM   22  C   UNL     1     -46.584 -48.058   8.941  1.00  0.00     0.005 C 
ENDBRANCH  20  21
ENDBRANCH  19  20
ENDBRANCH   1  19
TORSDOF 5
ENDMDL
MODEL 2
REMARK VINA RESULT:      -5.4      4.160      6.160
REMARK  5 active torsions:
REMARK  status: ('A' for Active; 'I' for Inactive)
REMARK    1  A    between atoms: C_2  and  C_3 
REMARK    2  A    between atoms: C_3  and  C_4 
REMARK    3  A    between atoms: C_4  and  N_5 
REMARK    4  A    between atoms: C_6  and  N_7 
REMARK    5  A    between atoms: C_8  and  N_9 
ROOT
HETATM    1  N   UNL     1     -44.141 -51.749  12.981  1.00  0.00    -0.288 N 
HETATM    2  C   UNL     1     -43.085 -50.848  12.987  1.00  0.00     0.116 A 
HETATM    3  C   UNL     1     -41.831 -51.233  12.636  1.00  0.00     0.138 A 
HETATM    4  C   UNL     1     -41.598 -52.673  12.294  1.00  0.00     0.279 A 
HETATM    5  O   UNL     1     -40.481 -53.130  12.069  1.00  0.00    -0.265 OA
HETATM    6  N   UNL     1     -42.715 -53.456  12.249  1.00  0.00    -0.273 N 
HETATM    7  C   UNL     1     -43.976 -53.079  12.606  1.00  0.00     0.330 A 
HETATM    8  O   UNL     1     -44.877 -53.917  12.600  1.00  0.00    -0.246 OA
HETATM    9  H   UNL     1     -42.581 -54.426  12.015  1.00  0.00     0.173 HD
ENDROOT
BRANCH   3  10
HETATM   10  N   UNL     1     -40.753 -50.339  12.666  1.00  0.00    -0.370 N 
HETATM   11  C   UNL     1     -39.818 -50.253  13.792  1.00  0.00     0.149 C 
HETATM   12  C   UNL     1     -39.565 -48.756  14.051  1.00  0.00     0.187 C 
HETATM   13  O   UNL     1     -39.025 -48.103  12.886  1.00  0.00    -0.388 OA
HETATM   14  C   UNL     1     -39.904 -48.239  11.752  1.00  0.00     0.187 C 
HETATM   15  C   UNL     1     -40.219 -49.713  11.445  1.00  0.00     0.149 C 
ENDBRANCH   3  10
BRANCH   2  16
HETATM   16  N   UNL     1     -43.260 -49.526  13.399  1.00  0.00    -0.286 NA
HETATM   17  H   UNL     1     -44.129 -49.390  13.900  1.00  0.00     0.125 HD
HETATM   18  H   UNL     1     -42.463 -49.257  13.977  1.00  0.00     0.125 HD
ENDBRANCH   2  16
BRANCH   1  19
HETATM   19  C   UNL     1     -45.485 -51.316  13.387  1.00  0.00     0.135 C 
BRANCH  19  20
HETATM   20  C   UNL     1     -45.711 -51.377  14.900  1.00  0.00     0.020 C 
BRANCH  20  21
HETATM   21  C   UNL     1     -47.183 -51.603  15.239  1.00  0.00    -0.003 C 
HETATM   22  C   UNL     1     -47.468 -51.233  16.685  1.00  0.00     0.005 C 
ENDBRANCH  20  21
ENDBRANCH  19  20
ENDBRANCH   1  19
TORSDOF 5
ENDMDL
MODEL 3
REMARK VINA RESULT:      -5.4      6.390      7.658
REMARK  5 active torsions:
REMARK  status: ('A' for Active; 'I' for Inactive)
REMARK    1  A    between atoms: C_2  and  C_3 
REMARK    2  A    between atoms: C_3  and  C_4 
REMARK    3  A    between atoms: C_4  and  N_5 
REMARK    4  A    between atoms: C_6  and  N_7 
REMARK    5  A    between atoms: C_8  and  N_9 
ROOT
HETATM    1  N   UNL     1     -43.817 -54.148  13.831  1.00  0.00    -0.288 N 
HETATM    2  C   UNL     1     -42.633 -54.252  14.550  1.00  0.00     0.116 A 
HETATM    3  C   UNL     1     -41.470 -53.751  14.063  1.00  0.00     0.138 A 
HETATM    4  C   UNL     1     -41.477 -53.129  12.700  1.00  0.00     0.279 A 
HETATM    5  O   UNL     1     -40.455 -52.746  12.138  1.00  0.00    -0.265 OA
HETATM    6  N   UNL     1     -42.704 -53.013  12.113  1.00  0.00    -0.273 N 
HETATM    7  C   UNL     1     -43.876 -53.519  12.592  1.00  0.00     0.330 A 
HETATM    8  O   UNL     1     -44.896 -53.416  11.911  1.00  0.00    -0.246 OA
HETATM    9  H   UNL     1     -42.732 -52.592  11.198  1.00  0.00     0.173 HD
ENDROOT
BRANCH   3  10
HETATM   10  N   UNL     1     -40.265 -53.875  14.767  1.00  0.00    -0.370 N 
HETATM   11  C   UNL     1     -39.283 -54.929  14.489  1.00  0.00     0.149 C 
HETATM   12  C   UNL     1     -38.790 -55.452  15.851  1.00  0.00     0.187 C 
HETATM   13  O   UNL     1     -38.202 -54.399  16.639  1.00  0.00    -0.388 OA
HETATM   14  C   UNL     1     -39.136 -53.324  16.862  1.00  0.00     0.187 C 
HETATM   15  C   UNL     1     -39.690 -52.763  15.541  1.00  0.00     0.149 C 
ENDBRANCH   3  10
BRANCH   2  16
HETATM   16  N   UNL     1     -42.584 -54.917  15.776  1.00  0.00    -0.286 NA
HETATM   17  H   UNL     1     -42.016 -54.429  16.457  1.00  0.00     0.125 HD
HETATM   18  H   UNL     1     -43.538 -55.038  16.119  1.00  0.00     0.125 HD
ENDBRANCH   2  16
BRANCH   1  19
HETATM   19  C   UNL     1     -45.061 -54.718  14.366  1.00  0.00     0.135 C 
BRANCH  19  20
HETATM   20  C   UNL     1     -45.759 -53.806  15.379  1.00  0.00     0.020 C 
BRANCH  20  21
HETATM   21  C   UNL     1     -46.917 -53.042  14.739  1.00  0.00    -0.003 C 
HETATM   22  C   UNL     1     -46.549 -51.583  14.525  1.00  0.00     0.005 C 
ENDBRANCH  20  21
ENDBRANCH  19  20
ENDBRANCH   1  19
TORSDOF 5
ENDMDL
MODEL 4
REMARK VINA RESULT:      -5.3      2.461      5.464
REMARK  5 active torsions:
REMARK  status: ('A' for Active; 'I' for Inactive)
REMARK    1  A    between atoms: C_2  and  C_3 
REMARK    2  A    between atoms: C_3  and  C_4 
REMARK    3  A    between atoms: C_4  and  N_5 
REMARK    4  A    between atoms: C_6  and  N_7 
REMARK    5  A    between atoms: C_8  and  N_9 
ROOT
HETATM    1  N   UNL     1     -42.519 -46.248  10.153  1.00  0.00    -0.288 N 
HETATM    2  C   UNL     1     -42.678 -44.917  10.514  1.00  0.00     0.116 A 
HETATM    3  C   UNL     1     -41.884 -44.345  11.455  1.00  0.00     0.138 A 
HETATM    4  C   UNL     1     -40.862 -45.201  12.139  1.00  0.00     0.279 A 
HETATM    5  O   UNL     1     -40.174 -44.797  13.073  1.00  0.00    -0.265 OA
HETATM    6  N   UNL     1     -40.741 -46.472  11.658  1.00  0.00    -0.273 N 
HETATM    7  C   UNL     1     -41.538 -47.056  10.719  1.00  0.00     0.330 A 
HETATM    8  O   UNL     1     -41.369 -48.243  10.443  1.00  0.00    -0.246 OA
HETATM    9  H   UNL     1     -40.055 -47.062  12.100  1.00  0.00     0.173 HD
ENDROOT
BRANCH   3  10
HETATM   10  N   UNL     1     -42.054 -43.012  11.848  1.00  0.00    -0.370 N 
HETATM   11  C   UNL     1     -42.829 -42.619  13.029  1.00  0.00     0.149 C 
HETATM   12  C   UNL     1     -43.672 -41.396  12.627  1.00  0.00     0.187 C 
HETATM   13  O   UNL     1     -42.841 -40.308  12.176  1.00  0.00    -0.388 OA
HETATM   14  C   UNL     1     -42.023 -40.701  11.056  1.00  0.00     0.187 C 
HETATM   15  C   UNL     1     -41.164 -41.936  11.379  1.00  0.00     0.149 C 
ENDBRANCH   3  10
BRANCH   2  16
HETATM   16  N   UNL     1     -43.691 -44.130   9.962  1.00  0.00    -0.286 NA
HETATM   17  H   UNL     1     -44.133 -43.534  10.650  1.00  0.00     0.125 HD
HETATM   18  H   UNL     1     -43.294 -43.575   9.204  1.00  0.00     0.125 HD
ENDBRANCH   2  16
BRANCH   1  19
HETATM   19  C   UNL     1     -43.406 -46.853   9.149  1.00  0.00     0.135 C 
BRANCH  19  20
HETATM   20  C   UNL     1     -44.635 -47.535   9.758  1.00  0.00     0.020 C 
BRANCH  20  21
HETATM   21  C   UNL     1     -45.907 -47.188   8.988  1.00  0.00    -0.003 C 
HETATM   22  C   UNL     1     -46.755 -48.429   8.757  1.00  0.00     0.005 C 
ENDBRANCH  20  21
ENDBRANCH  19  20
ENDBRANCH   1  19
TORSDOF 5
ENDMDL
MODEL 5
REMARK VINA RESULT:      -5.2      3.490      5.423
REMARK  5 active torsions:
REMARK  status: ('A' for Active; 'I' for Inactive)
REMARK    1  A    between atoms: C_2  and  C_3 
REMARK    2  A    between atoms: C_3  and  C_4 
REMARK    3  A    between atoms: C_4  and  N_5 
REMARK    4  A    between atoms: C_6  and  N_7 
REMARK    5  A    between atoms: C_8  and  N_9 
ROOT
HETATM    1  N   UNL     1     -41.451 -49.682  11.974  1.00  0.00    -0.288 N 
HETATM    2  C   UNL     1     -42.421 -50.517  12.513  1.00  0.00     0.116 A 
HETATM    3  C   UNL     1     -42.156 -51.821  12.779  1.00  0.00     0.138 A 
HETATM    4  C   UNL     1     -40.803 -52.359  12.425  1.00  0.00     0.279 A 
HETATM    5  O   UNL     1     -40.512 -53.547  12.532  1.00  0.00    -0.265 OA
HETATM    6  N   UNL     1     -39.904 -51.439  11.969  1.00  0.00    -0.273 N 
HETATM    7  C   UNL     1     -40.164 -50.129  11.694  1.00  0.00     0.330 A 
HETATM    8  O   UNL     1     -39.277 -49.433  11.202  1.00  0.00    -0.246 OA
HETATM    9  H   UNL     1     -38.987 -51.779  11.732  1.00  0.00     0.173 HD
ENDROOT
BRANCH   3  10
HETATM   10  N   UNL     1     -43.135 -52.679  13.296  1.00  0.00    -0.370 N 
HETATM   11  C   UNL     1     -43.988 -53.520  12.449  1.00  0.00     0.149 C 
HETATM   12  C   UNL     1     -45.414 -53.432  13.022  1.00  0.00     0.187 C 
HETATM   13  O   UNL     1     -45.461 -53.873  14.393  1.00  0.00    -0.388 OA
HETATM   14  C   UNL     1     -44.574 -53.098  15.225  1.00  0.00     0.187 C 
HETATM   15  C   UNL     1     -43.129 -53.123  14.700  1.00  0.00     0.149 C 
ENDBRANCH   3  10
BRANCH   2  16
HETATM   16  N   UNL     1     -43.718 -50.061  12.756  1.00  0.00    -0.286 NA
HETATM   17  H   UNL     1     -44.091 -49.528  11.981  1.00  0.00     0.125 HD
HETATM   18  H   UNL     1     -44.312 -50.865  12.963  1.00  0.00     0.125 HD
ENDBRANCH   2  16
BRANCH   1  19
HETATM   19  C   UNL     1     -41.767 -48.279  11.673  1.00  0.00     0.135 C 
BRANCH  19  20
HETATM   20  C   UNL     1     -42.194 -48.052  10.220  1.00  0.00     0.020 C 
BRANCH  20  21
HETATM   21  C   UNL     1     -43.612 -47.493  10.133  1.00  0.00    -0.003 C 
HETATM   22  C   UNL     1     -44.054 -47.360   8.685  1.00  0.00     0.005 C 
ENDBRANCH  20  21
ENDBRANCH  19  20
ENDBRANCH   1  19
TORSDOF 5
ENDMDL
MODEL 6
REMARK VINA RESULT:      -5.1      2.931      5.790
REMARK  5 active torsions:
REMARK  status: ('A' for Active; 'I' for Inactive)
REMARK    1  A    between atoms: C_2  and  C_3 
REMARK    2  A    between atoms: C_3  and  C_4 
REMARK    3  A    between atoms: C_4  and  N_5 
REMARK    4  A    between atoms: C_6  and  N_7 
REMARK    5  A    between atoms: C_8  and  N_9 
ROOT
HETATM    1  N   UNL     1     -42.238 -51.817  12.805  1.00  0.00    -0.288 N 
HETATM    2  C   UNL     1     -42.459 -50.486  12.473  1.00  0.00     0.116 A 
HETATM    3  C   UNL     1     -41.488 -49.738  11.891  1.00  0.00     0.138 A 
HETATM    4  C   UNL     1     -40.146 -50.365  11.662  1.00  0.00     0.279 A 
HETATM    5  O   UNL     1     -39.181 -49.734  11.240  1.00  0.00    -0.265 OA
HETATM    6  N   UNL     1     -40.060 -51.694  11.957  1.00  0.00    -0.273 N 
HETATM    7  C   UNL     1     -41.027 -52.452  12.548  1.00  0.00     0.330 A 
HETATM    8  O   UNL     1     -40.780 -53.622  12.836  1.00  0.00    -0.246 OA
HETATM    9  H   UNL     1     -39.168 -52.136  11.804  1.00  0.00     0.173 HD
ENDROOT
BRANCH   3  10
HETATM   10  N   UNL     1     -41.690 -48.387  11.579  1.00  0.00    -0.370 N 
HETATM   11  C   UNL     1     -41.224 -47.291  12.434  1.00  0.00     0.149 C 
HETATM   12  C   UNL     1     -42.357 -46.251  12.488  1.00  0.00     0.187 C 
HETATM   13  O   UNL     1     -42.691 -45.767  11.172  1.00  0.00    -0.388 OA
HETATM   14  C   UNL     1     -43.086 -46.844  10.300  1.00  0.00     0.187 C 
HETATM   15  C   UNL     1     -42.007 -47.936  10.214  1.00  0.00     0.149 C 
ENDBRANCH   3  10
BRANCH   2  16
HETATM   16  N   UNL     1     -43.668 -49.854  12.770  1.00  0.00    -0.286 NA
HETATM   17  H   UNL     1     -43.742 -48.943  12.337  1.00  0.00     0.125 HD
HETATM   18  H   UNL     1     -44.433 -50.461  12.475  1.00  0.00     0.125 HD
ENDBRANCH   2  16
BRANCH   1  19
HETATM   19  C   UNL     1     -43.295 -52.602  13.456  1.00  0.00     0.135 C 
BRANCH  19  20
HETATM   20  C   UNL     1     -44.271 -53.245  12.467  1.00  0.00     0.020 C 
BRANCH  20  21
HETATM   21  C   UNL     1     -45.704 -53.216  12.994  1.00  0.00    -0.003 C 
HETATM   22  C   UNL     1     -46.465 -52.027  12.429  1.00  0.00     0.005 C 
ENDBRANCH  20  21
ENDBRANCH  19  20
ENDBRANCH   1  19
TORSDOF 5
ENDMDL
MODEL 7
REMARK VINA RESULT:      -5.0      5.137      7.703
REMARK  5 active torsions:
REMARK  status: ('A' for Active; 'I' for Inactive)
REMARK    1  A    between atoms: C_2  and  C_3 
REMARK    2  A    between atoms: C_3  and  C_4 
REMARK    3  A    between atoms: C_4  and  N_5 
REMARK    4  A    between atoms: C_6  and  N_7 
REMARK    5  A    between atoms: C_8  and  N_9 
ROOT
HETATM    1  N   UNL     1     -40.758 -52.069  13.000  1.00  0.00    -0.288 N 
HETATM    2  C   UNL     1     -42.109 -52.332  13.185  1.00  0.00     0.116 A 
HETATM    3  C   UNL     1     -42.525 -53.306  14.034  1.00  0.00     0.138 A 
HETATM    4  C   UNL     1     -41.487 -54.134  14.729  1.00  0.00     0.279 A 
HETATM    5  O   UNL     1     -41.770 -55.102  15.430  1.00  0.00    -0.265 OA
HETATM    6  N   UNL     1     -40.194 -53.745  14.533  1.00  0.00    -0.273 N 
HETATM    7  C   UNL     1     -39.768 -52.772  13.678  1.00  0.00     0.330 A 
HETATM    8  O   UNL     1     -38.560 -52.586  13.536  1.00  0.00    -0.246 OA
HETATM    9  H   UNL     1     -39.482 -54.285  14.997  1.00  0.00     0.173 HD
ENDROOT
BRANCH   3  10
HETATM   10  N   UNL     1     -43.883 -53.600  14.207  1.00  0.00    -0.370 N 
HETATM   11  C   UNL     1     -44.730 -52.916  15.190  1.00  0.00     0.149 C 
HETATM   12  C   UNL     1     -45.602 -53.994  15.858  1.00  0.00     0.187 C 
HETATM   13  O   UNL     1     -46.406 -54.697  14.891  1.00  0.00    -0.388 OA
HETATM   14  C   UNL     1     -45.588 -55.318  13.879  1.00  0.00     0.187 C 
HETATM   15  C   UNL     1     -44.671 -54.300  13.179  1.00  0.00     0.149 C 
ENDBRANCH   3  10
BRANCH   2  16
HETATM   16  N   UNL     1     -43.089 -51.640  12.470  1.00  0.00    -0.286 NA
HETATM   17  H   UNL     1     -43.472 -50.864  12.994  1.00  0.00     0.125 HD
HETATM   18  H   UNL     1     -42.684 -51.319  11.590  1.00  0.00     0.125 HD
ENDBRANCH   2  16
BRANCH   1  19
HETATM   19  C   UNL     1     -40.330 -51.025  12.058  1.00  0.00     0.135 C 
BRANCH  19  20
HETATM   20  C   UNL     1     -40.031 -49.684  12.734  1.00  0.00     0.020 C 
BRANCH  20  21
HETATM   21  C   UNL     1     -38.997 -48.879  11.949  1.00  0.00    -0.003 C 
HETATM   22  C   UNL     1     -37.799 -49.743  11.588  1.00  0.00     0.005 C 
ENDBRANCH  20  21
ENDBRANCH  19  20
ENDBRANCH   1  19
TORSDOF 5
ENDMDL
MODEL 8
REMARK VINA RESULT:      -4.9      4.444      6.918
REMARK  5 active torsions:
REMARK  status: ('A' for Active; 'I' for Inactive)
REMARK    1  A    between atoms: C_2  and  C_3 
REMARK    2  A    between atoms: C_3  and  C_4 
REMARK    3  A    between atoms: C_4  and  N_5 
REMARK    4  A    between atoms: C_6  and  N_7 
REMARK    5  A    between atoms: C_8  and  N_9 
ROOT
HETATM    1  N   UNL     1     -43.494 -53.024  14.588  1.00  0.00    -0.288 N 
HETATM    2  C   UNL     1     -42.734 -51.946  14.153  1.00  0.00     0.116 A 
HETATM    3  C   UNL     1     -41.499 -52.127  13.618  1.00  0.00     0.138 A 
HETATM    4  C   UNL     1     -40.947 -53.519  13.558  1.00  0.00     0.279 A 
HETATM    5  O   UNL     1     -39.802 -53.764  13.190  1.00  0.00    -0.265 OA
HETATM    6  N   UNL     1     -41.803 -54.509  13.944  1.00  0.00    -0.273 N 
HETATM    7  C   UNL     1     -43.041 -54.336  14.487  1.00  0.00     0.330 A 
HETATM    8  O   UNL     1     -43.670 -55.320  14.872  1.00  0.00    -0.246 OA
HETATM    9  H   UNL     1     -41.453 -55.453  13.905  1.00  0.00     0.173 HD
ENDROOT
BRANCH   3  10
HETATM   10  N   UNL     1     -40.713 -51.046  13.203  1.00  0.00    -0.370 N 
HETATM   11  C   UNL     1     -39.643 -50.472  14.027  1.00  0.00     0.149 C 
HETATM   12  C   UNL     1     -39.756 -48.942  13.907  1.00  0.00     0.187 C 
HETATM   13  O   UNL     1     -39.635 -48.509  12.538  1.00  0.00    -0.388 OA
HETATM   14  C   UNL     1     -40.639 -49.119  11.703  1.00  0.00     0.187 C 
HETATM   15  C   UNL     1     -40.600 -50.654  11.788  1.00  0.00     0.149 C 
ENDBRANCH   3  10
BRANCH   2  16
HETATM   16  N   UNL     1     -43.188 -50.633  14.293  1.00  0.00    -0.286 NA
HETATM   17  H   UNL     1     -43.416 -50.405  15.252  1.00  0.00     0.125 HD
HETATM   18  H   UNL     1     -42.474 -50.002  13.930  1.00  0.00     0.125 HD
ENDBRANCH   2  16
BRANCH   1  19
HETATM   19  C   UNL     1     -44.818 -52.803  15.185  1.00  0.00     0.135 C 
BRANCH  19  20
HETATM   20  C   UNL     1     -45.936 -52.667  14.148  1.00  0.00     0.020 C 
BRANCH  20  21
HETATM   21  C   UNL     1     -46.818 -51.453  14.430  1.00  0.00    -0.003 C 
HETATM   22  C   UNL     1     -47.179 -51.377  15.905  1.00  0.00     0.005 C 
ENDBRANCH  20  21
ENDBRANCH  19  20
ENDBRANCH   1  19
TORSDOF 5
ENDMDL
MODEL 9
REMARK VINA RESULT:      -4.7      4.486      7.143
REMARK  5 active torsions:
REMARK  status: ('A' for Active; 'I' for Inactive)
REMARK    1  A    between atoms: C_2  and  C_3 
REMARK    2  A    between atoms: C_3  and  C_4 
REMARK    3  A    between atoms: C_4  and  N_5 
REMARK    4  A    between atoms: C_6  and  N_7 
REMARK    5  A    between atoms: C_8  and  N_9 
ROOT
HETATM    1  N   UNL     1     -40.829 -51.015  12.631  1.00  0.00    -0.288 N 
HETATM    2  C   UNL     1     -42.198 -51.117  12.839  1.00  0.00     0.116 A 
HETATM    3  C   UNL     1     -42.746 -52.238  13.373  1.00  0.00     0.138 A 
HETATM    4  C   UNL     1     -41.842 -53.392  13.684  1.00  0.00     0.279 A 
HETATM    5  O   UNL     1     -42.261 -54.480  14.069  1.00  0.00    -0.265 OA
HETATM    6  N   UNL     1     -40.508 -53.160  13.510  1.00  0.00    -0.273 N 
HETATM    7  C   UNL     1     -39.952 -52.039  12.969  1.00  0.00     0.330 A 
HETATM    8  O   UNL     1     -38.735 -52.001  12.790  1.00  0.00    -0.246 OA
HETATM    9  H   UNL     1     -39.883 -53.921  13.720  1.00  0.00     0.173 HD
ENDROOT
BRANCH   3  10
HETATM   10  N   UNL     1     -44.128 -52.364  13.560  1.00  0.00    -0.370 N 
HETATM   11  C   UNL     1     -45.001 -53.069  12.616  1.00  0.00     0.149 C 
HETATM   12  C   UNL     1     -46.270 -52.214  12.454  1.00  0.00     0.187 C 
HETATM   13  O   UNL     1     -46.937 -52.014  13.716  1.00  0.00    -0.388 OA
HETATM   14  C   UNL     1     -46.066 -51.383  14.676  1.00  0.00     0.187 C 
HETATM   15  C   UNL     1     -44.762 -52.174  14.875  1.00  0.00     0.149 C 
ENDBRANCH   3  10
BRANCH   2  16
HETATM   16  N   UNL     1     -43.069 -50.093  12.461  1.00  0.00    -0.286 NA
HETATM   17  H   UNL     1     -43.367 -49.531  13.249  1.00  0.00     0.125 HD
HETATM   18  H   UNL     1     -42.608 -49.516  11.758  1.00  0.00     0.125 HD
ENDBRANCH   2  16
BRANCH   1  19
HETATM   19  C   UNL     1     -40.261 -49.800  12.029  1.00  0.00     0.135 C 
BRANCH  19  20
HETATM   20  C   UNL     1     -39.876 -48.736  13.060  1.00  0.00     0.020 C 
BRANCH  20  21
HETATM   21  C   UNL     1     -38.369 -48.487  13.074  1.00  0.00    -0.003 C 
HETATM   22  C   UNL     1     -37.746 -49.008  14.359  1.00  0.00     0.005 C 
ENDBRANCH  20  21
ENDBRANCH  19  20
ENDBRANCH   1  19
TORSDOF 5
ENDMDL
