MODEL 1
REMARK VINA RESULT:      -5.3      0.000      0.000
REMARK  8 active torsions:
REMARK  status: ('A' for Active; 'I' for Inactive)
REMARK    1  A    between atoms: C_2  and  C_3 
REMARK    2  A    between atoms: C_3  and  N_4 
REMARK    3  A    between atoms: C_5  and  N_6 
REMARK    4  A    between atoms: C_7  and  N_8 
REMARK    5  A    between atoms: N_8  and  C_9 
REMARK       I    between atoms: N_8  and  C_13 
REMARK    6  A    between atoms: C_9  and  C_10 
REMARK    7  A    between atoms: C_10  and  O_11 
REMARK    8  A    between atoms: C_13  and  C_15 
ROOT
HETATM    1  N   UNL     1     -44.509 -52.809  14.029  1.00  0.00    -0.288 N 
HETATM    2  C   UNL     1     -43.273 -52.550  14.633  1.00  0.00     0.117 C 
HETATM    3  C   UNL     1     -42.169 -52.397  13.852  1.00  0.00     0.145 C 
HETATM    4  C   UNL     1     -42.319 -52.541  12.375  1.00  0.00     0.279 C 
HETATM    5  O   UNL     1     -41.475 -52.101  11.600  1.00  0.00    -0.265 OA
HETATM    6  N   UNL     1     -43.478 -53.102  11.951  1.00  0.00    -0.273 N 
HETATM    7  C   UNL     1     -44.637 -52.981  12.649  1.00  0.00     0.330 C 
HETATM    8  O   UNL     1     -45.707 -53.018  12.045  1.00  0.00    -0.246 OA
HETATM    9  H   UNL     1     -43.603 -53.153  10.951  1.00  0.00     0.173 HD
ENDROOT
BRANCH   3  10
HETATM   10  N   UNL     1     -40.947 -51.946  14.364  1.00  0.00    -0.301 N 
HETATM   11  C   UNL     1     -39.979 -52.838  14.900  1.00  0.00     0.332 C 
HETATM   12  O   UNL     1     -39.023 -52.380  15.551  1.00  0.00    -0.263 OA
BRANCH  10  13
HETATM   13  C   UNL     1     -40.850 -50.600  14.956  1.00  0.00     0.159 C 
BRANCH  13  14
HETATM   14  C   UNL     1     -40.450 -49.405  14.091  1.00  0.00     0.187 C 
BRANCH  14  15
HETATM   15  O   UNL     1     -39.502 -49.789  13.093  1.00  0.00    -0.394 OA
HETATM   16  C   UNL     1     -39.681 -49.015  11.909  1.00  0.00     0.201 C 
ENDBRANCH  14  15
ENDBRANCH  13  14
ENDBRANCH  10  13
BRANCH  11  17
HETATM   17  C   UNL     1     -40.027 -54.354  14.594  1.00  0.00     0.472 C 
HETATM   18  F   UNL     1     -40.093 -54.691  13.278  1.00  0.00    -0.162 F 
HETATM   19  F   UNL     1     -38.907 -54.975  15.071  1.00  0.00    -0.162 F 
HETATM   20  F   UNL     1     -41.080 -54.969  15.203  1.00  0.00    -0.162 F 
ENDBRANCH  11  17
ENDBRANCH   3  10
BRANCH   2  21
HETATM   21  N   UNL     1     -43.162 -52.374  16.011  1.00  0.00    -0.286 NA
HETATM   22  H   UNL     1     -43.408 -53.211  16.530  1.00  0.00     0.125 HD
HETATM   23  H   UNL     1     -43.702 -51.579  16.342  1.00  0.00     0.125 HD
ENDBRANCH   2  21
BRANCH   1  24
HETATM   24  C   UNL     1     -45.767 -52.846  14.793  1.00  0.00     0.135 C 
BRANCH  24  25
HETATM   25  C   UNL     1     -46.455 -51.480  14.932  1.00  0.00     0.016 C 
HETATM   26  C   UNL     1     -47.346 -51.398  16.160  1.00  0.00     0.006 C 
ENDBRANCH  24  25
ENDBRANCH   1  24
TORSDOF 8
ENDMDL
MODEL 2
REMARK VINA RESULT:      -5.3      1.630      2.637
REMARK  8 active torsions:
REMARK  status: ('A' for Active; 'I' for Inactive)
REMARK    1  A    between atoms: C_2  and  C_3 
REMARK    2  A    between atoms: C_3  and  N_4 
REMARK    3  A    between atoms: C_5  and  N_6 
REMARK    4  A    between atoms: C_7  and  N_8 
REMARK    5  A    between atoms: N_8  and  C_9 
REMARK       I    between atoms: N_8  and  C_13 
REMARK    6  A    between atoms: C_9  and  C_10 
REMARK    7  A    between atoms: C_10  and  O_11 
REMARK    8  A    between atoms: C_13  and  C_15 
ROOT
HETATM    1  N   UNL     1     -44.303 -52.436  13.824  1.00  0.00    -0.288 N 
HETATM    2  C   UNL     1     -43.048 -52.051  13.337  1.00  0.00     0.117 C 
HETATM    3  C   UNL     1     -42.024 -51.861  14.212  1.00  0.00     0.145 C 
HETATM    4  C   UNL     1     -42.290 -52.044  15.668  1.00  0.00     0.279 C 
HETATM    5  O   UNL     1     -41.377 -52.217  16.469  1.00  0.00    -0.265 OA
HETATM    6  N   UNL     1     -43.597 -52.096  16.027  1.00  0.00    -0.273 N 
HETATM    7  C   UNL     1     -44.558 -52.568  15.191  1.00  0.00     0.330 C 
HETATM    8  O   UNL     1     -45.568 -53.082  15.668  1.00  0.00    -0.246 OA
HETATM    9  H   UNL     1     -43.779 -52.272  17.004  1.00  0.00     0.173 HD
ENDROOT
BRANCH   3  10
HETATM   10  N   UNL     1     -40.704 -51.669  13.788  1.00  0.00    -0.301 N 
HETATM   11  C   UNL     1     -39.778 -52.744  13.693  1.00  0.00     0.332 C 
HETATM   12  O   UNL     1     -38.569 -52.496  13.542  1.00  0.00    -0.263 OA
BRANCH  10  13
HETATM   13  C   UNL     1     -40.033 -50.380  14.032  1.00  0.00     0.159 C 
BRANCH  13  14
HETATM   14  C   UNL     1     -39.989 -49.315  12.936  1.00  0.00     0.187 C 
BRANCH  14  15
HETATM   15  O   UNL     1     -40.529 -49.817  11.711  1.00  0.00    -0.394 OA
HETATM   16  C   UNL     1     -41.228 -48.789  11.014  1.00  0.00     0.201 C 
ENDBRANCH  14  15
ENDBRANCH  13  14
ENDBRANCH  10  13
BRANCH  11  17
HETATM   17  C   UNL     1     -40.258 -54.214  13.659  1.00  0.00     0.472 C 
HETATM   18  F   UNL     1     -41.059 -54.602  14.688  1.00  0.00    -0.162 F 
HETATM   19  F   UNL     1     -40.985 -54.455  12.526  1.00  0.00    -0.162 F 
HETATM   20  F   UNL     1     -39.218 -55.095  13.627  1.00  0.00    -0.162 F 
ENDBRANCH  11  17
ENDBRANCH   3  10
BRANCH   2  21
HETATM   21  N   UNL     1     -42.807 -51.929  11.970  1.00  0.00    -0.286 NA
HETATM   22  H   UNL     1     -42.609 -50.973  11.695  1.00  0.00     0.125 HD
HETATM   23  H   UNL     1     -43.566 -52.309  11.410  1.00  0.00     0.125 HD
ENDBRANCH   2  21
BRANCH   1  24
HETATM   24  C   UNL     1     -45.417 -52.796  12.933  1.00  0.00     0.135 C 
BRANCH  24  25
HETATM   25  C   UNL     1     -46.416 -51.656  12.687  1.00  0.00     0.016 C 
HETATM   26  C   UNL     1     -47.134 -51.786  11.354  1.00  0.00     0.006 C 
ENDBRANCH  24  25
ENDBRANCH   1  24
TORSDOF 8
ENDMDL
MODEL 3
REMARK VINA RESULT:      -5.3      5.232      6.619
REMARK  8 active torsions:
REMARK  status: ('A' for Active; 'I' for Inactive)
REMARK    1  A    between atoms: C_2  and  C_3 
REMARK    2  A    between atoms: C_3  and  N_4 
REMARK    3  A    between atoms: C_5  and  N_6 
REMARK    4  A    between atoms: C_7  and  N_8 
REMARK    5  A    between atoms: N_8  and  C_9 
REMARK       I    between atoms: N_8  and  C_13 
REMARK    6  A    between atoms: C_9  and  C_10 
REMARK    7  A    between atoms: C_10  and  O_11 
REMARK    8  A    between atoms: C_13  and  C_15 
ROOT
HETATM    1  N   UNL     1     -43.548 -47.163  10.155  1.00  0.00    -0.288 N 
HETATM    2  C   UNL     1     -42.856 -47.959  11.075  1.00  0.00     0.117 C 
HETATM    3  C   UNL     1     -41.580 -47.627  11.415  1.00  0.00     0.145 C 
HETATM    4  C   UNL     1     -40.959 -46.436  10.768  1.00  0.00     0.279 C 
HETATM    5  O   UNL     1     -39.972 -45.888  11.248  1.00  0.00    -0.265 OA
HETATM    6  N   UNL     1     -41.604 -45.955   9.677  1.00  0.00    -0.273 N 
HETATM    7  C   UNL     1     -42.949 -46.072   9.522  1.00  0.00     0.330 C 
HETATM    8  O   UNL     1     -43.552 -45.229   8.860  1.00  0.00    -0.246 OA
HETATM    9  H   UNL     1     -41.214 -45.118   9.268  1.00  0.00     0.173 HD
ENDROOT
BRANCH   3  10
HETATM   10  N   UNL     1     -40.899 -48.254  12.465  1.00  0.00    -0.301 N 
HETATM   11  C   UNL     1     -40.887 -47.720  13.783  1.00  0.00     0.332 C 
HETATM   12  O   UNL     1     -40.087 -48.175  14.618  1.00  0.00    -0.263 OA
BRANCH  10  13
HETATM   13  C   UNL     1     -39.700 -49.063  12.184  1.00  0.00     0.159 C 
BRANCH  13  14
HETATM   14  C   UNL     1     -39.813 -50.581  12.033  1.00  0.00     0.187 C 
BRANCH  14  15
HETATM   15  O   UNL     1     -41.181 -50.993  12.001  1.00  0.00    -0.394 OA
HETATM   16  C   UNL     1     -41.274 -52.415  11.961  1.00  0.00     0.201 C 
ENDBRANCH  14  15
ENDBRANCH  13  14
ENDBRANCH  10  13
BRANCH  11  17
HETATM   17  C   UNL     1     -41.928 -46.665  14.229  1.00  0.00     0.472 C 
HETATM   18  F   UNL     1     -43.232 -46.990  14.015  1.00  0.00    -0.162 F 
HETATM   19  F   UNL     1     -41.830 -46.435  15.574  1.00  0.00    -0.162 F 
HETATM   20  F   UNL     1     -41.728 -45.458  13.630  1.00  0.00    -0.162 F 
ENDBRANCH  11  17
ENDBRANCH   3  10
BRANCH   2  21
HETATM   21  N   UNL     1     -43.468 -49.041  11.704  1.00  0.00    -0.286 NA
HETATM   22  H   UNL     1     -42.804 -49.632  12.193  1.00  0.00     0.125 HD
HETATM   23  H   UNL     1     -44.028 -49.593  11.060  1.00  0.00     0.125 HD
ENDBRANCH   2  21
BRANCH   1  24
HETATM   24  C   UNL     1     -44.971 -47.374   9.845  1.00  0.00     0.135 C 
BRANCH  24  25
HETATM   25  C   UNL     1     -45.226 -47.973   8.454  1.00  0.00     0.016 C 
HETATM   26  C   UNL     1     -46.542 -48.728   8.376  1.00  0.00     0.006 C 
ENDBRANCH  24  25
ENDBRANCH   1  24
TORSDOF 8
ENDMDL
MODEL 4
REMARK VINA RESULT:      -5.1      3.234      5.854
REMARK  8 active torsions:
REMARK  status: ('A' for Active; 'I' for Inactive)
REMARK    1  A    between atoms: C_2  and  C_3 
REMARK    2  A    between atoms: C_3  and  N_4 
REMARK    3  A    between atoms: C_5  and  N_6 
REMARK    4  A    between atoms: C_7  and  N_8 
REMARK    5  A    between atoms: N_8  and  C_9 
REMARK       I    between atoms: N_8  and  C_13 
REMARK    6  A    between atoms: C_9  and  C_10 
REMARK    7  A    between atoms: C_10  and  O_11 
REMARK    8  A    between atoms: C_13  and  C_15 
ROOT
HETATM    1  N   UNL     1     -41.682 -51.487  13.572  1.00  0.00    -0.288 N 
HETATM    2  C   UNL     1     -42.627 -51.928  14.506  1.00  0.00     0.117 C 
HETATM    3  C   UNL     1     -43.616 -52.771  14.105  1.00  0.00     0.145 C 
HETATM    4  C   UNL     1     -43.670 -53.172  12.669  1.00  0.00     0.279 C 
HETATM    5  O   UNL     1     -44.301 -54.158  12.302  1.00  0.00    -0.265 OA
HETATM    6  N   UNL     1     -42.911 -52.434  11.822  1.00  0.00    -0.273 N 
HETATM    7  C   UNL     1     -41.759 -51.833  12.222  1.00  0.00     0.330 C 
HETATM    8  O   UNL     1     -40.867 -51.640  11.397  1.00  0.00    -0.246 OA
HETATM    9  H   UNL     1     -42.905 -52.735  10.859  1.00  0.00     0.173 HD
ENDROOT
BRANCH   3  10
HETATM   10  N   UNL     1     -44.473 -53.405  15.013  1.00  0.00    -0.301 N 
HETATM   11  C   UNL     1     -45.627 -52.762  15.537  1.00  0.00     0.332 C 
HETATM   12  O   UNL     1     -46.220 -53.267  16.506  1.00  0.00    -0.263 OA
BRANCH  10  13
HETATM   13  C   UNL     1     -43.943 -54.428  15.931  1.00  0.00     0.159 C 
BRANCH  13  14
HETATM   14  C   UNL     1     -42.827 -55.369  15.476  1.00  0.00     0.187 C 
BRANCH  14  15
HETATM   15  O   UNL     1     -42.732 -56.506  16.336  1.00  0.00    -0.394 OA
HETATM   16  C   UNL     1     -41.491 -56.500  17.039  1.00  0.00     0.201 C 
ENDBRANCH  14  15
ENDBRANCH  13  14
ENDBRANCH  10  13
BRANCH  11  17
HETATM   17  C   UNL     1     -46.226 -51.510  14.854  1.00  0.00     0.472 C 
HETATM   18  F   UNL     1     -46.494 -51.629  13.525  1.00  0.00    -0.162 F 
HETATM   19  F   UNL     1     -47.418 -51.172  15.433  1.00  0.00    -0.162 F 
HETATM   20  F   UNL     1     -45.425 -50.415  14.989  1.00  0.00    -0.162 F 
ENDBRANCH  11  17
ENDBRANCH   3  10
BRANCH   2  21
HETATM   21  N   UNL     1     -42.533 -51.580  15.852  1.00  0.00    -0.286 NA
HETATM   22  H   UNL     1     -42.329 -52.377  16.446  1.00  0.00     0.125 HD
HETATM   23  H   UNL     1     -43.363 -51.094  16.182  1.00  0.00     0.125 HD
ENDBRANCH   2  21
BRANCH   1  24
HETATM   24  C   UNL     1     -40.506 -50.691  13.957  1.00  0.00     0.135 C 
BRANCH  24  25
HETATM   25  C   UNL     1     -39.282 -51.531  14.350  1.00  0.00     0.016 C 
HETATM   26  C   UNL     1     -38.054 -51.199  13.519  1.00  0.00     0.006 C 
ENDBRANCH  24  25
ENDBRANCH   1  24
TORSDOF 8
ENDMDL
MODEL 5
REMARK VINA RESULT:      -5.1      3.126      4.468
REMARK  8 active torsions:
REMARK  status: ('A' for Active; 'I' for Inactive)
REMARK    1  A    between atoms: C_2  and  C_3 
REMARK    2  A    between atoms: C_3  and  N_4 
REMARK    3  A    between atoms: C_5  and  N_6 
REMARK    4  A    between atoms: C_7  and  N_8 
REMARK    5  A    between atoms: N_8  and  C_9 
REMARK       I    between atoms: N_8  and  C_13 
REMARK    6  A    between atoms: C_9  and  C_10 
REMARK    7  A    between atoms: C_10  and  O_11 
REMARK    8  A    between atoms: C_13  and  C_15 
ROOT
HETATM    1  N   UNL     1     -42.599 -52.016  12.770  1.00  0.00    -0.288 N 
HETATM    2  C   UNL     1     -41.217 -52.215  12.676  1.00  0.00     0.117 C 
HETATM    3  C   UNL     1     -40.377 -51.390  13.358  1.00  0.00     0.145 C 
HETATM    4  C   UNL     1     -40.968 -50.281  14.161  1.00  0.00     0.279 C 
HETATM    5  O   UNL     1     -40.328 -49.718  15.044  1.00  0.00    -0.265 OA
HETATM    6  N   UNL     1     -42.271 -50.002  13.912  1.00  0.00    -0.273 N 
HETATM    7  C   UNL     1     -43.146 -50.952  13.491  1.00  0.00     0.330 C 
HETATM    8  O   UNL     1     -44.338 -50.834  13.768  1.00  0.00    -0.246 OA
HETATM    9  H   UNL     1     -42.687 -49.286  14.490  1.00  0.00     0.173 HD
ENDROOT
BRANCH   3  10
HETATM   10  N   UNL     1     -39.005 -51.645  13.470  1.00  0.00    -0.301 N 
HETATM   11  C   UNL     1     -38.059 -51.095  12.564  1.00  0.00     0.332 C 
HETATM   12  O   UNL     1     -36.894 -51.531  12.558  1.00  0.00    -0.263 OA
BRANCH  10  13
HETATM   13  C   UNL     1     -38.540 -52.914  14.055  1.00  0.00     0.159 C 
BRANCH  13  14
HETATM   14  C   UNL     1     -39.250 -53.509  15.272  1.00  0.00     0.187 C 
BRANCH  14  15
HETATM   15  O   UNL     1     -40.135 -54.562  14.884  1.00  0.00    -0.394 OA
HETATM   16  C   UNL     1     -41.003 -54.909  15.961  1.00  0.00     0.201 C 
ENDBRANCH  14  15
ENDBRANCH  13  14
ENDBRANCH  10  13
BRANCH  11  17
HETATM   17  C   UNL     1     -38.416 -49.886  11.666  1.00  0.00     0.472 C 
HETATM   18  F   UNL     1     -39.547 -50.015  10.920  1.00  0.00    -0.162 F 
HETATM   19  F   UNL     1     -38.611 -48.766  12.425  1.00  0.00    -0.162 F 
HETATM   20  F   UNL     1     -37.415 -49.576  10.796  1.00  0.00    -0.162 F 
ENDBRANCH  11  17
ENDBRANCH   3  10
BRANCH   2  21
HETATM   21  N   UNL     1     -40.686 -53.284  11.958  1.00  0.00    -0.286 NA
HETATM   22  H   UNL     1     -39.884 -53.015  11.397  1.00  0.00     0.125 HD
HETATM   23  H   UNL     1     -41.384 -53.745  11.380  1.00  0.00     0.125 HD
ENDBRANCH   2  21
BRANCH   1  24
HETATM   24  C   UNL     1     -43.572 -52.948  12.178  1.00  0.00     0.135 C 
BRANCH  24  25
HETATM   25  C   UNL     1     -43.860 -54.184  13.043  1.00  0.00     0.016 C 
HETATM   26  C   UNL     1     -45.310 -54.259  13.489  1.00  0.00     0.006 C 
ENDBRANCH  24  25
ENDBRANCH   1  24
TORSDOF 8
ENDMDL
MODEL 6
REMARK VINA RESULT:      -5.1      2.885      4.507
REMARK  8 active torsions:
REMARK  status: ('A' for Active; 'I' for Inactive)
REMARK    1  A    between atoms: C_2  and  C_3 
REMARK    2  A    between atoms: C_3  and  N_4 
REMARK    3  A    between atoms: C_5  and  N_6 
REMARK    4  A    between atoms: C_7  and  N_8 
REMARK    5  A    between atoms: N_8  and  C_9 
REMARK       I    between atoms: N_8  and  C_13 
REMARK    6  A    between atoms: C_9  and  C_10 
REMARK    7  A    between atoms: C_10  and  O_11 
REMARK    8  A    between atoms: C_13  and  C_15 
ROOT
HETATM    1  N   UNL     1     -41.862 -50.489  12.835  1.00  0.00    -0.288 N 
HETATM    2  C   UNL     1     -42.389 -51.446  13.710  1.00  0.00     0.117 C 
HETATM    3  C   UNL     1     -42.031 -52.751  13.564  1.00  0.00     0.145 C 
HETATM    4  C   UNL     1     -41.107 -53.114  12.451  1.00  0.00     0.279 C 
HETATM    5  O   UNL     1     -40.488 -54.173  12.452  1.00  0.00    -0.265 OA
HETATM    6  N   UNL     1     -40.932 -52.167  11.497  1.00  0.00    -0.273 N 
HETATM    7  C   UNL     1     -41.029 -50.839  11.770  1.00  0.00     0.330 C 
HETATM    8  O   UNL     1     -40.387 -50.039  11.092  1.00  0.00    -0.246 OA
HETATM    9  H   UNL     1     -40.268 -52.390  10.770  1.00  0.00     0.173 HD
ENDROOT
BRANCH   3  10
HETATM   10  N   UNL     1     -42.357 -53.727  14.513  1.00  0.00    -0.301 N 
HETATM   11  C   UNL     1     -43.645 -54.326  14.567  1.00  0.00     0.332 C 
HETATM   12  O   UNL     1     -43.961 -55.006  15.559  1.00  0.00    -0.263 OA
BRANCH  10  13
HETATM   13  C   UNL     1     -41.690 -53.728  15.826  1.00  0.00     0.159 C 
BRANCH  13  14
HETATM   14  C   UNL     1     -40.444 -54.583  16.057  1.00  0.00     0.187 C 
BRANCH  14  15
HETATM   15  O   UNL     1     -39.276 -53.937  15.546  1.00  0.00    -0.394 OA
HETATM   16  C   UNL     1     -39.208 -52.590  16.006  1.00  0.00     0.201 C 
ENDBRANCH  14  15
ENDBRANCH  13  14
ENDBRANCH  10  13
BRANCH  11  17
HETATM   17  C   UNL     1     -44.619 -54.244  13.367  1.00  0.00     0.472 C 
HETATM   18  F   UNL     1     -44.053 -54.365  12.135  1.00  0.00    -0.162 F 
HETATM   19  F   UNL     1     -45.550 -55.243  13.436  1.00  0.00    -0.162 F 
HETATM   20  F   UNL     1     -45.325 -53.079  13.353  1.00  0.00    -0.162 F 
ENDBRANCH  11  17
ENDBRANCH   3  10
BRANCH   2  21
HETATM   21  N   UNL     1     -43.214 -51.082  14.772  1.00  0.00    -0.286 NA
HETATM   22  H   UNL     1     -42.689 -50.787  15.588  1.00  0.00     0.125 HD
HETATM   23  H   UNL     1     -43.871 -51.818  15.019  1.00  0.00     0.125 HD
ENDBRANCH   2  21
BRANCH   1  24
HETATM   24  C   UNL     1     -42.090 -49.047  13.016  1.00  0.00     0.135 C 
BRANCH  24  25
HETATM   25  C   UNL     1     -43.312 -48.506  12.258  1.00  0.00     0.016 C 
HETATM   26  C   UNL     1     -42.928 -47.601  11.101  1.00  0.00     0.006 C 
ENDBRANCH  24  25
ENDBRANCH   1  24
TORSDOF 8
ENDMDL
MODEL 7
REMARK VINA RESULT:      -5.0      5.649      7.999
REMARK  8 active torsions:
REMARK  status: ('A' for Active; 'I' for Inactive)
REMARK    1  A    between atoms: C_2  and  C_3 
REMARK    2  A    between atoms: C_3  and  N_4 
REMARK    3  A    between atoms: C_5  and  N_6 
REMARK    4  A    between atoms: C_7  and  N_8 
REMARK    5  A    between atoms: N_8  and  C_9 
REMARK       I    between atoms: N_8  and  C_13 
REMARK    6  A    between atoms: C_9  and  C_10 
REMARK    7  A    between atoms: C_10  and  O_11 
REMARK    8  A    between atoms: C_13  and  C_15 
ROOT
HETATM    1  N   UNL     1     -40.046 -47.959  12.776  1.00  0.00    -0.288 N 
HETATM    2  C   UNL     1     -40.612 -47.139  11.793  1.00  0.00     0.117 C 
HETATM    3  C   UNL     1     -41.837 -46.588  12.009  1.00  0.00     0.145 C 
HETATM    4  C   UNL     1     -42.545 -46.907  13.282  1.00  0.00     0.279 C 
HETATM    5  O   UNL     1     -43.469 -46.211  13.693  1.00  0.00    -0.265 OA
HETATM    6  N   UNL     1     -42.045 -47.950  13.990  1.00  0.00    -0.273 N 
HETATM    7  C   UNL     1     -40.729 -48.286  13.950  1.00  0.00     0.330 C 
HETATM    8  O   UNL     1     -40.221 -48.835  14.926  1.00  0.00    -0.246 OA
HETATM    9  H   UNL     1     -42.490 -48.134  14.877  1.00  0.00     0.173 HD
ENDROOT
BRANCH   3  10
HETATM   10  N   UNL     1     -42.376 -45.610  11.166  1.00  0.00    -0.301 N 
HETATM   11  C   UNL     1     -43.047 -45.941   9.957  1.00  0.00     0.332 C 
HETATM   12  O   UNL     1     -43.298 -45.044   9.133  1.00  0.00    -0.263 OA
BRANCH  10  13
HETATM   13  C   UNL     1     -41.768 -44.269  11.113  1.00  0.00     0.159 C 
BRANCH  13  14
HETATM   14  C   UNL     1     -41.280 -43.593  12.395  1.00  0.00     0.187 C 
BRANCH  14  15
HETATM   15  O   UNL     1     -40.111 -42.809  12.148  1.00  0.00    -0.394 OA
HETATM   16  C   UNL     1     -40.407 -41.419  12.263  1.00  0.00     0.201 C 
ENDBRANCH  14  15
ENDBRANCH  13  14
ENDBRANCH  10  13
BRANCH  11  17
HETATM   17  C   UNL     1     -43.571 -47.373   9.697  1.00  0.00     0.472 C 
HETATM   18  F   UNL     1     -44.402 -47.516   8.629  1.00  0.00    -0.162 F 
HETATM   19  F   UNL     1     -42.532 -48.229   9.462  1.00  0.00    -0.162 F 
HETATM   20  F   UNL     1     -44.236 -47.882  10.773  1.00  0.00    -0.162 F 
ENDBRANCH  11  17
ENDBRANCH   3  10
BRANCH   2  21
HETATM   21  N   UNL     1     -39.916 -46.817  10.630  1.00  0.00    -0.286 NA
HETATM   22  H   UNL     1     -40.487 -46.913   9.797  1.00  0.00     0.125 HD
HETATM   23  H   UNL     1     -39.057 -47.352  10.535  1.00  0.00     0.125 HD
ENDBRANCH   2  21
BRANCH   1  24
HETATM   24  C   UNL     1     -38.671 -48.474  12.678  1.00  0.00     0.135 C 
BRANCH  24  25
HETATM   25  C   UNL     1     -38.563 -49.838  11.980  1.00  0.00     0.016 C 
HETATM   26  C   UNL     1     -37.329 -49.947  11.100  1.00  0.00     0.006 C 
ENDBRANCH  24  25
ENDBRANCH   1  24
TORSDOF 8
ENDMDL
MODEL 8
REMARK VINA RESULT:      -5.0      3.873      6.268
REMARK  8 active torsions:
REMARK  status: ('A' for Active; 'I' for Inactive)
REMARK    1  A    between atoms: C_2  and  C_3 
REMARK    2  A    between atoms: C_3  and  N_4 
REMARK    3  A    between atoms: C_5  and  N_6 
REMARK    4  A    between atoms: C_7  and  N_8 
REMARK    5  A    between atoms: N_8  and  C_9 
REMARK       I    between atoms: N_8  and  C_13 
REMARK    6  A    between atoms: C_9  and  C_10 
REMARK    7  A    between atoms: C_10  and  O_11 
REMARK    8  A    between atoms: C_13  and  C_15 
ROOT
HETATM    1  N   UNL     1     -41.047 -46.752  11.342  1.00  0.00    -0.288 N 
HETATM    2  C   UNL     1     -40.845 -48.136  11.419  1.00  0.00     0.117 C 
HETATM    3  C   UNL     1     -40.478 -48.690  12.606  1.00  0.00     0.145 C 
HETATM    4  C   UNL     1     -40.277 -47.790  13.778  1.00  0.00     0.279 C 
HETATM    5  O   UNL     1     -40.275 -48.225  14.926  1.00  0.00    -0.265 OA
HETATM    6  N   UNL     1     -40.187 -46.467  13.498  1.00  0.00    -0.273 N 
HETATM    7  C   UNL     1     -40.819 -45.910  12.432  1.00  0.00     0.330 C 
HETATM    8  O   UNL     1     -41.157 -44.728  12.486  1.00  0.00    -0.246 OA
HETATM    9  H   UNL     1     -40.103 -45.852  14.294  1.00  0.00     0.173 HD
ENDROOT
BRANCH   3  10
HETATM   10  N   UNL     1     -40.450 -50.075  12.808  1.00  0.00    -0.301 N 
HETATM   11  C   UNL     1     -39.309 -50.861  12.489  1.00  0.00     0.332 C 
HETATM   12  O   UNL     1     -39.410 -52.100  12.462  1.00  0.00    -0.263 OA
BRANCH  10  13
HETATM   13  C   UNL     1     -41.698 -50.854  12.734  1.00  0.00     0.159 C 
BRANCH  13  14
HETATM   14  C   UNL     1     -42.454 -51.222  14.012  1.00  0.00     0.187 C 
BRANCH  14  15
HETATM   15  O   UNL     1     -43.337 -52.322  13.786  1.00  0.00    -0.394 OA
HETATM   16  C   UNL     1     -42.622 -53.440  13.266  1.00  0.00     0.201 C 
ENDBRANCH  14  15
ENDBRANCH  13  14
ENDBRANCH  10  13
BRANCH  11  17
HETATM   17  C   UNL     1     -37.919 -50.212  12.286  1.00  0.00     0.472 C 
HETATM   18  F   UNL     1     -37.518 -49.353  13.262  1.00  0.00    -0.162 F 
HETATM   19  F   UNL     1     -36.947 -51.171  12.227  1.00  0.00    -0.162 F 
HETATM   20  F   UNL     1     -37.836 -49.526  11.112  1.00  0.00    -0.162 F 
ENDBRANCH  11  17
ENDBRANCH   3  10
BRANCH   2  21
HETATM   21  N   UNL     1     -41.082 -48.965  10.325  1.00  0.00    -0.286 NA
HETATM   22  H   UNL     1     -41.588 -49.807  10.579  1.00  0.00     0.125 HD
HETATM   23  H   UNL     1     -40.227 -49.200   9.828  1.00  0.00     0.125 HD
ENDBRANCH   2  21
BRANCH   1  24
HETATM   24  C   UNL     1     -41.579 -46.100  10.135  1.00  0.00     0.135 C 
BRANCH  24  25
HETATM   25  C   UNL     1     -43.110 -46.155  10.017  1.00  0.00     0.016 C 
HETATM   26  C   UNL     1     -43.572 -46.644   8.655  1.00  0.00     0.006 C 
ENDBRANCH  24  25
ENDBRANCH   1  24
TORSDOF 8
ENDMDL
MODEL 9
REMARK VINA RESULT:      -4.9      4.344      5.877
REMARK  8 active torsions:
REMARK  status: ('A' for Active; 'I' for Inactive)
REMARK    1  A    between atoms: C_2  and  C_3 
REMARK    2  A    between atoms: C_3  and  N_4 
REMARK    3  A    between atoms: C_5  and  N_6 
REMARK    4  A    between atoms: C_7  and  N_8 
REMARK    5  A    between atoms: N_8  and  C_9 
REMARK       I    between atoms: N_8  and  C_13 
REMARK    6  A    between atoms: C_9  and  C_10 
REMARK    7  A    between atoms: C_10  and  O_11 
REMARK    8  A    between atoms: C_13  and  C_15 
ROOT
HETATM    1  N   UNL     1     -41.650 -47.552  10.584  1.00  0.00    -0.288 N 
HETATM    2  C   UNL     1     -41.275 -48.566  11.473  1.00  0.00     0.117 C 
HETATM    3  C   UNL     1     -40.354 -48.299  12.439  1.00  0.00     0.145 C 
HETATM    4  C   UNL     1     -39.756 -46.934  12.492  1.00  0.00     0.279 C 
HETATM    5  O   UNL     1     -39.191 -46.521  13.500  1.00  0.00    -0.265 OA
HETATM    6  N   UNL     1     -39.956 -46.160  11.397  1.00  0.00    -0.273 N 
HETATM    7  C   UNL     1     -41.058 -46.287  10.612  1.00  0.00     0.330 C 
HETATM    8  O   UNL     1     -41.470 -45.307   9.995  1.00  0.00    -0.246 OA
HETATM    9  H   UNL     1     -39.596 -45.218  11.451  1.00  0.00     0.173 HD
ENDROOT
BRANCH   3  10
HETATM   10  N   UNL     1     -40.078 -49.195  13.478  1.00  0.00    -0.301 N 
HETATM   11  C   UNL     1     -39.101 -50.220  13.350  1.00  0.00     0.332 C 
HETATM   12  O   UNL     1     -39.056 -51.129  14.199  1.00  0.00    -0.263 OA
BRANCH  10  13
HETATM   13  C   UNL     1     -41.135 -49.553  14.441  1.00  0.00     0.159 C 
BRANCH  13  14
HETATM   14  C   UNL     1     -41.339 -48.718  15.705  1.00  0.00     0.187 C 
BRANCH  14  15
HETATM   15  O   UNL     1     -40.089 -48.256  16.222  1.00  0.00    -0.394 OA
HETATM   16  C   UNL     1     -39.565 -49.184  17.169  1.00  0.00     0.201 C 
ENDBRANCH  14  15
ENDBRANCH  13  14
ENDBRANCH  10  13
BRANCH  11  17
HETATM   17  C   UNL     1     -38.022 -50.166  12.244  1.00  0.00     0.472 C 
HETATM   18  F   UNL     1     -38.484 -50.136  10.964  1.00  0.00    -0.162 F 
HETATM   19  F   UNL     1     -37.254 -49.042  12.377  1.00  0.00    -0.162 F 
HETATM   20  F   UNL     1     -37.157 -51.217  12.315  1.00  0.00    -0.162 F 
ENDBRANCH  11  17
ENDBRANCH   3  10
BRANCH   2  21
HETATM   21  N   UNL     1     -41.879 -49.821  11.437  1.00  0.00    -0.286 NA
HETATM   22  H   UNL     1     -42.588 -49.932  12.154  1.00  0.00     0.125 HD
HETATM   23  H   UNL     1     -41.200 -50.576  11.491  1.00  0.00     0.125 HD
ENDBRANCH   2  21
BRANCH   1  24
HETATM   24  C   UNL     1     -42.737 -47.722   9.608  1.00  0.00     0.135 C 
BRANCH  24  25
HETATM   25  C   UNL     1     -44.139 -47.469  10.181  1.00  0.00     0.016 C 
HETATM   26  C   UNL     1     -45.207 -47.398   9.104  1.00  0.00     0.006 C 
ENDBRANCH  24  25
ENDBRANCH   1  24
TORSDOF 8
ENDMDL
