REMARK  5 active torsions:
REMARK  status: ('A' for Active; 'I' for Inactive)
REMARK    1  A    between atoms: C_2  and  C_5 
REMARK    2  A    between atoms: C_8  and  C_9 
REMARK    3  A    between atoms: C_9  and  C_10 
REMARK    4  A    between atoms: C_10  and  N_11 
REMARK       I    between atoms: N_11  and  C_12 
REMARK    5  A    between atoms: C_12  and  C_14 
ROOT
HETATM    1  C   UNL     1       5.726   0.743   3.539  1.00  0.00     0.084 C 
ENDROOT
BRANCH   1   2
HETATM    2  C   UNL     1       5.112   0.617   2.178  1.00  0.00     0.052 A 
HETATM    3  S   UNL     1       6.131   0.560   0.793  1.00  0.00    -0.086 SA
HETATM    4  C   UNL     1       4.752   0.405  -0.208  1.00  0.00     0.085 A 
HETATM    5  C   UNL     1       3.594   0.408   0.551  1.00  0.00     0.123 A 
HETATM    6  N   UNL     1       3.822   0.549   1.925  1.00  0.00    -0.350 N 
ATOM      7  HN  UNL     1       3.089   0.593   2.633  1.00  0.00     0.166 HD
BRANCH   5   8
HETATM    8  C   UNL     1       2.197   0.275   0.014  1.00  0.00     0.433 C 
HETATM    9  F   UNL     1       2.181   0.195  -1.346  1.00  0.00    -0.165 F 
HETATM   10  F   UNL     1       1.416   1.336   0.345  1.00  0.00    -0.165 F 
HETATM   11  F   UNL     1       1.572  -0.840   0.473  1.00  0.00    -0.165 F 
ENDBRANCH   5   8
ENDBRANCH   1   2
BRANCH   1  12
HETATM   12  C   UNL     1       4.680   0.778   4.653  1.00  0.00     0.129 C 
BRANCH  12  13
HETATM   13  N   UNL     1       5.296   0.889   5.966  1.00  0.00    -0.360 N 
HETATM   14  C   UNL     1       5.756  -0.220   6.644  1.00  0.00     0.221 C 
HETATM   15  O   UNL     1       5.628  -1.363   6.219  1.00  0.00    -0.273 OA
HETATM   16  H   UNL     1       5.436   1.810   6.362  1.00  0.00     0.162 HD
BRANCH  14  17
HETATM   17  C   UNL     1       6.436   0.116   7.962  1.00  0.00     0.078 C 
HETATM   18  C   UNL     1       7.727   0.920   7.750  1.00  0.00     0.014 C 
HETATM   19  C   UNL     1       8.746   0.384   8.754  1.00  0.00     0.001 C 
HETATM   20  C   UNL     1       7.985  -0.586   9.644  1.00  0.00     0.001 C 
HETATM   21  C   UNL     1       6.882  -1.117   8.746  1.00  0.00     0.014 C 
ENDBRANCH  14  17
ENDBRANCH  12  13
ENDBRANCH   1  12
TORSDOF 5
