REMARK  5 active torsions:
REMARK  status: ('A' for Active; 'I' for Inactive)
REMARK    1  A    between atoms: C_2  and  C_3 
REMARK    2  A    between atoms: C_3  and  C_4 
REMARK    3  A    between atoms: C_4  and  N_6 
REMARK       I    between atoms: N_6  and  C_7 
REMARK    4  A    between atoms: C_7  and  C_9 
REMARK    5  A    between atoms: C_9  and  N_10 
ROOT
HETATM    1  C   UNL     1       6.818  -3.992   2.027  1.00  0.00     0.235 C 
ENDROOT
BRANCH   1   2
HETATM    2  C   UNL     1       6.389  -2.731   1.280  1.00  0.00     0.236 C 
HETATM    3  N   UNL     1       5.079  -2.345   1.472  1.00  0.00    -0.355 N 
HETATM    4  H   UNL     1       4.532  -2.810   2.189  1.00  0.00     0.162 HD
HETATM    5  O   UNL     1       7.152  -2.158   0.502  1.00  0.00    -0.272 OA
BRANCH   3   6
HETATM    6  C   UNL     1       4.555  -1.126   0.862  1.00  0.00     0.080 C 
HETATM    7  C   UNL     1       4.920   0.085   1.723  1.00  0.00     0.032 C 
BRANCH   6   8
HETATM    8  C   UNL     1       3.039  -1.251   0.632  1.00  0.00     0.024 C 
BRANCH   8   9
HETATM    9  C   UNL     1       2.453  -0.063  -0.137  1.00  0.00    -0.003 C 
HETATM   10  C   UNL     1       0.963  -0.227  -0.390  1.00  0.00     0.005 C 
ENDBRANCH   8   9
ENDBRANCH   6   8
ENDBRANCH   3   6
ENDBRANCH   1   2
BRANCH   1  11
HETATM   11  N   UNL     1       6.537  -5.195   1.242  1.00  0.00    -0.301 N 
HETATM   12  C   UNL     1       7.226  -5.413   0.065  1.00  0.00     0.102 C 
HETATM   13  C   UNL     1       6.975  -6.467  -0.714  1.00  0.00     0.092 C 
HETATM   14  C   UNL     1       5.956  -7.437  -0.286  1.00  0.00     0.250 C 
HETATM   15  O   UNL     1       5.654  -8.392  -0.992  1.00  0.00    -0.268 OA
HETATM   16  N   UNL     1       5.373  -7.191   0.923  1.00  0.00    -0.275 N 
HETATM   17  C   UNL     1       5.547  -6.061   1.679  1.00  0.00     0.329 C 
HETATM   18  H   UNL     1       4.658  -7.834   1.224  1.00  0.00     0.173 HD
HETATM   19  O   UNL     1       4.847  -5.859   2.671  1.00  0.00    -0.246 OA
ENDBRANCH   1  11
TORSDOF 5
