REMARK  7 active torsions:
REMARK  status: ('A' for Active; 'I' for Inactive)
REMARK    1  A    between atoms: C_7  and  O_8 
REMARK    2  A    between atoms: O_8  and  C_9 
REMARK    3  A    between atoms: C_9  and  C_10 
REMARK    4  A    between atoms: C_10  and  N_11 
REMARK    5  A    between atoms: C_12  and  C_13 
REMARK    6  A    between atoms: C_13  and  N_14 
REMARK    7  A    between atoms: N_14  and  C_15 
ROOT
HETATM    1  N   UNL     1      -0.698  -3.716  -0.273  1.00  0.00    -0.331 N 
HETATM    2  C   UNL     1      -1.396  -4.925  -0.276  1.00  0.00     0.102 A 
HETATM    3  N   UNL     1      -2.694  -4.714  -0.191  1.00  0.00    -0.343 N 
ATOM      4  HN  UNL     1      -3.427  -5.420  -0.123  1.00  0.00     0.167 HD
HETATM    5  C   UNL     1      -2.859  -3.357  -0.212  1.00  0.00     0.060 A 
HETATM    6  C   UNL     1      -4.053  -2.616  -0.171  1.00  0.00     0.032 A 
HETATM    7  C   UNL     1      -3.995  -1.221  -0.221  1.00  0.00     0.002 A 
HETATM    8  C   UNL     1      -2.771  -0.574  -0.333  1.00  0.00     0.002 A 
HETATM    9  C   UNL     1      -1.577  -1.300  -0.392  1.00  0.00     0.032 A 
HETATM   10  C   UNL     1      -1.630  -2.700  -0.305  1.00  0.00     0.062 A 
ENDROOT
BRANCH   1  11
HETATM   11  C   UNL     1       0.756  -3.648  -0.185  1.00  0.00     0.157 C 
BRANCH  11  12
HETATM   12  C   UNL     1       1.464  -2.296  -0.296  1.00  0.00     0.196 C 
BRANCH  12  13
HETATM   13  O   UNL     1       1.241  -1.517   0.876  1.00  0.00    -0.348 OA
BRANCH  13  14
HETATM   14  C   UNL     1       1.633  -0.204   0.929  1.00  0.00     0.090 A 
HETATM   15  C   UNL     1       2.449   0.539   0.063  1.00  0.00     0.067 A 
HETATM   16 CL   UNL     1       3.167  -0.049  -1.395  1.00  0.00    -0.081 Cl
HETATM   17  C   UNL     1       2.745   1.881   0.359  1.00  0.00     0.026 A 
HETATM   18  C   UNL     1       2.234   2.498   1.500  1.00  0.00     0.002 A 
HETATM   19  C   UNL     1       1.403   1.780   2.349  1.00  0.00     0.003 A 
HETATM   20  C   UNL     1       1.108   0.445   2.063  1.00  0.00     0.038 A 
ENDBRANCH  13  14
ENDBRANCH  12  13
ENDBRANCH  11  12
ENDBRANCH   1  11
BRANCH   2  21
HETATM   21  C   UNL     1      -0.776  -6.279  -0.388  1.00  0.00     0.198 C 
BRANCH  21  22
HETATM   22  N   UNL     1      -0.609  -6.851   0.927  1.00  0.00    -0.361 N 
HETATM   23  H   UNL     1      -1.443  -7.123   1.431  1.00  0.00     0.162 HD
BRANCH  22  24
HETATM   24  C   UNL     1       0.614  -6.977   1.521  1.00  0.00     0.348 C 
HETATM   25  O   UNL     1       1.678  -6.626   1.029  1.00  0.00    -0.284 OA
ENDBRANCH  22  24
ENDBRANCH  21  22
ENDBRANCH   2  21
TORSDOF 7
