REMARK  7 active torsions:
REMARK  status: ('A' for Active; 'I' for Inactive)
REMARK    1  A    between atoms: C_2  and  C_3 
REMARK    2  A    between atoms: C_2  and  N_10 
REMARK    3  A    between atoms: C_3  and  N_4 
REMARK    4  A    between atoms: N_10  and  C_11 
REMARK    5  A    between atoms: C_11  and  C_13 
REMARK       I    between atoms: C_13  and  N_15 
REMARK    6  A    between atoms: N_15  and  C_16 
REMARK    7  A    between atoms: C_16  and  C_17 
ROOT
HETATM    1  N   UNL     1       3.191   0.399  -1.191  1.00  0.00     0.102 N 
HETATM    2  H   UNL     1       2.823   1.303  -1.494  1.00  0.00     0.317 HD
ENDROOT
BRANCH   1   3
HETATM    3  C   UNL     1       2.605  -0.025   0.076  1.00  0.00     0.237 C 
HETATM    4  C   UNL     1       2.934   1.022   1.143  1.00  0.00     0.044 C 
BRANCH   3   5
HETATM    5  C   UNL     1       1.058  -0.147  -0.035  1.00  0.00     0.183 C 
BRANCH   5   6
HETATM    6  N   UNL     1       0.538  -1.215  -0.875  1.00  0.00    -0.302 N 
HETATM    7  C   UNL     1       0.282  -2.505  -0.492  1.00  0.00     0.111 A 
HETATM    8  C   UNL     1      -0.466  -3.071  -1.498  1.00  0.00     0.037 A 
HETATM    9  C   UNL     1      -0.611  -2.049  -2.446  1.00  0.00     0.108 A 
HETATM   10  N   UNL     1      -0.021  -0.911  -2.072  1.00  0.00    -0.310 N 
ATOM     11  HN  UNL     1       0.003  -0.021  -2.570  1.00  0.00     0.186 HD
ENDBRANCH   5   6
ENDBRANCH   3   5
ENDBRANCH   1   3
BRANCH   1  12
HETATM   12  C   UNL     1       4.654   0.377  -1.370  1.00  0.00     0.308 C 
HETATM   13  C   UNL     1       5.365  -0.900  -0.920  1.00  0.00     0.053 C 
BRANCH  12  14
HETATM   14  C   UNL     1       4.980   0.626  -2.872  1.00  0.00     0.251 C 
HETATM   15  O   UNL     1       5.847   1.437  -3.213  1.00  0.00    -0.271 OA
HETATM   16  N   UNL     1       4.339  -0.114  -3.841  1.00  0.00    -0.356 N 
HETATM   17  H   UNL     1       4.542   0.211  -4.777  1.00  0.00     0.162 HD
BRANCH  16  18
HETATM   18  C   UNL     1       3.102  -0.836  -3.639  1.00  0.00     0.149 C 
BRANCH  18  19
HETATM   19  C   UNL     1       2.834  -1.730  -4.798  1.00  0.00    -0.018 C 
HETATM   20  C   UNL     1       1.662  -1.735  -5.448  1.00  0.00     0.008 C 
ENDBRANCH  18  19
ENDBRANCH  16  18
ENDBRANCH  12  14
ENDBRANCH   1  12
TORSDOF 7
