REMARK  3 active torsions:
REMARK  status: ('A' for Active; 'I' for Inactive)
REMARK    1  A    between atoms: O_2  and  C_3 
REMARK    2  A    between atoms: C_6  and  N_7 
REMARK       I    between atoms: N_7  and  C_8 
REMARK       I    between atoms: C_8  and  N_10 
REMARK    3  A    between atoms: N_10  and  C_11 
ROOT
HETATM    1  N   UNL     1       5.409   4.754   1.028  1.00  0.00    -0.308 N 
HETATM    2  C   UNL     1       6.764   4.717   1.214  1.00  0.00     0.321 C 
HETATM    3  O   UNL     1       7.491   3.751   1.022  1.00  0.00    -0.247 OA
HETATM    4  N   UNL     1       7.282   5.900   1.700  1.00  0.00    -0.337 N 
HETATM    5  H   UNL     1       4.956   5.655   1.039  1.00  0.00     0.170 HD
HETATM    6  H   UNL     1       6.783   6.754   1.500  1.00  0.00     0.164 HD
ENDROOT
BRANCH   1   7
HETATM    7  C   UNL     1       4.620   3.629   0.692  1.00  0.00     0.051 A 
HETATM    8  C   UNL     1       5.068   2.313   0.810  1.00  0.00     0.035 A 
HETATM    9  C   UNL     1       4.232   1.256   0.463  1.00  0.00     0.058 A 
HETATM   10  C   UNL     1       2.959   1.548   0.014  1.00  0.00     0.141 A 
HETATM   11  N   UNL     1       2.476   2.804  -0.105  1.00  0.00    -0.345 N 
HETATM   12  C   UNL     1       3.315   3.810   0.241  1.00  0.00     0.119 A 
ATOM     13  HN  UNL     1       1.529   2.986  -0.438  1.00  0.00     0.167 HD
BRANCH  10  14
HETATM   14  O   UNL     1       2.169   0.463  -0.306  1.00  0.00    -0.341 OA
HETATM   15  C   UNL     1       0.866   0.838  -0.733  1.00  0.00     0.211 C 
ENDBRANCH  10  14
ENDBRANCH   1   7
BRANCH   4  16
HETATM   16  C   UNL     1       8.709   5.994   2.014  1.00  0.00     0.101 C 
HETATM   17  C   UNL     1       9.602   5.826   0.765  1.00  0.00     0.041 C 
HETATM   18  C   UNL     1      10.897   5.110   1.132  1.00  0.00     0.142 C 
HETATM   19  S   UNL     1      10.899   4.886   2.892  1.00  0.00     0.146 S 
HETATM   20  O   UNL     1      11.336   3.544   3.211  1.00  0.00    -0.228 OA
HETATM   21  O   UNL     1      11.505   6.056   3.496  1.00  0.00    -0.228 OA
HETATM   22  C   UNL     1       9.149   5.010   3.100  1.00  0.00     0.165 C 
ENDBRANCH   4  16
TORSDOF 3
