REMARK  4 active torsions:
REMARK  status: ('A' for Active; 'I' for Inactive)
REMARK    1  A    between atoms: N_1  and  C_2 
REMARK    2  A    between atoms: C_2  and  C_3 
REMARK    3  A    between atoms: C_3  and  C_4 
REMARK    4  A    between atoms: C_7  and  C_10 
ROOT
HETATM    1  C   UNL     1       4.556   1.087  -1.042  1.00  0.00     0.052 A 
HETATM    2  N   UNL     1       5.374   2.121  -1.086  1.00  0.00    -0.356 N 
ATOM      3  HN  UNL     1       5.085   3.096  -1.160  1.00  0.00     0.166 HD
HETATM    4  C   UNL     1       6.683   1.682  -1.016  1.00  0.00     0.020 A 
HETATM    5  C   UNL     1       6.849   0.315  -0.945  1.00  0.00     0.076 A 
HETATM    6  S   UNL     1       5.322  -0.456  -0.966  1.00  0.00    -0.087 SA
ENDROOT
BRANCH   1   7
HETATM    7  C   UNL     1       3.060   1.176  -1.020  1.00  0.00     0.094 C 
BRANCH   7   8
HETATM    8  C   UNL     1       2.462   1.131  -2.428  1.00  0.00     0.273 C 
BRANCH   8   9
HETATM    9  N   UNL     1       0.996   1.155  -2.384  1.00  0.00     0.078 N 
HETATM   10  H   UNL     1       0.630   1.145  -3.336  1.00  0.00     0.312 HD
HETATM   11  H   UNL     1       0.680   2.032  -1.970  1.00  0.00     0.312 HD
ENDBRANCH   8   9
ENDBRANCH   7   8
ENDBRANCH   1   7
BRANCH   4  12
HETATM   12  C   UNL     1       7.881   2.625  -1.020  1.00  0.00     0.036 A 
HETATM   13  C   UNL     1       7.740   4.003  -0.410  1.00  0.00     0.011 A 
HETATM   14  C   UNL     1       7.817   3.860  -1.891  1.00  0.00     0.011 A 
ENDBRANCH   4  12
TORSDOF 4
