REMARK  5 active torsions:
REMARK  status: ('A' for Active; 'I' for Inactive)
REMARK    1  A    between atoms: C_2  and  C_3 
REMARK    2  A    between atoms: C_6  and  C_7 
REMARK    3  A    between atoms: C_7  and  N_8 
REMARK       I    between atoms: N_8  and  C_9 
REMARK    4  A    between atoms: C_9  and  C_11 
REMARK    5  A    between atoms: C_11  and  N_12 
ROOT
HETATM    1  N   UNL     1       5.783  -4.585  -0.451  1.00  0.00    -0.359 N 
HETATM    2  C   UNL     1       6.010  -5.558  -1.400  1.00  0.00     0.237 C 
HETATM    3  O   UNL     1       5.110  -6.223  -1.908  1.00  0.00    -0.272 OA
HETATM    4  H   UNL     1       6.540  -3.982  -0.150  1.00  0.00     0.162 HD
ENDROOT
BRANCH   1   5
HETATM    5  C   UNL     1       4.444  -4.243  -0.010  1.00  0.00     0.127 C 
BRANCH   5   6
HETATM    6  C   UNL     1       3.789  -3.154  -0.883  1.00  0.00     0.003 C 
HETATM    7  C   UNL     1       4.553  -1.818  -0.839  1.00  0.00     0.006 C 
HETATM    8  C   UNL     1       4.407  -1.087   0.498  1.00  0.00     0.005 C 
HETATM    9  C   UNL     1       2.937  -0.883   0.911  1.00  0.00    -0.015 C 
HETATM   10  C   UNL     1       2.195  -2.229   0.881  1.00  0.00     0.005 C 
HETATM   11  C   UNL     1       2.323  -2.940  -0.466  1.00  0.00     0.006 C 
BRANCH   9  12
HETATM   12  C   UNL     1       2.279   0.212   0.044  1.00  0.00     0.000 C 
HETATM   13  C   UNL     1       0.832   0.511   0.409  1.00  0.00     0.005 C 
ENDBRANCH   9  12
ENDBRANCH   5   6
ENDBRANCH   1   5
BRANCH   2  14
HETATM   14  C   UNL     1       7.459  -5.774  -1.760  1.00  0.00     0.249 C 
BRANCH  14  15
HETATM   15  N   UNL     1       7.691  -5.499  -3.153  1.00  0.00    -0.264 N 
HETATM   16  C   UNL     1       7.182  -6.121  -4.247  1.00  0.00     0.213 A 
HETATM   17  N   UNL     1       7.722  -5.582  -5.316  1.00  0.00    -0.281 N 
HETATM   18  N   UNL     1       8.581  -4.613  -4.856  1.00  0.00    -0.008 NA
ATOM     19  HN  UNL     1       7.541  -5.831  -6.288  1.00  0.00     0.184 HD
HETATM   20  N   UNL     1       8.573  -4.559  -3.531  1.00  0.00    -0.005 NA
ENDBRANCH  14  15
ENDBRANCH   2  14
TORSDOF 5
