REMARK  3 active torsions:
REMARK  status: ('A' for Active; 'I' for Inactive)
REMARK       I    between atoms: C_2  and  N_3 
REMARK       I    between atoms: C_2  and  N_12 
REMARK    1  A    between atoms: N_3  and  C_4 
REMARK    2  A    between atoms: N_12  and  C_13 
REMARK    3  A    between atoms: C_19  and  N_20 
ROOT
HETATM    1  O   UNL     1       2.638   0.828   0.978  1.00  0.00    -0.247 OA
HETATM    2  C   UNL     1       2.176   0.295  -0.019  1.00  0.00     0.321 C 
HETATM    3  N   UNL     1       0.818   0.171  -0.215  1.00  0.00    -0.330 N 
HETATM    4  N   UNL     1       2.883  -0.208  -1.082  1.00  0.00    -0.306 N 
HETATM    5  H   UNL     1       0.551  -0.759  -0.506  1.00  0.00     0.165 HD
HETATM    6  H   UNL     1       2.389  -0.240  -1.965  1.00  0.00     0.171 HD
ENDROOT
BRANCH   4   7
HETATM    7  C   UNL     1       4.293  -0.209  -1.211  1.00  0.00     0.075 A 
HETATM    8  C   UNL     1       5.143  -0.024  -0.119  1.00  0.00     0.034 A 
HETATM    9  C   UNL     1       6.513   0.061  -0.315  1.00  0.00     0.019 A 
HETATM   10  C   UNL     1       6.988  -0.064  -1.603  1.00  0.00     0.089 A 
HETATM   11  N   UNL     1       6.204  -0.277  -2.684  1.00  0.00    -0.355 N 
HETATM   12  C   UNL     1       4.863  -0.360  -2.500  1.00  0.00     0.109 A 
ATOM     13  HN  UNL     1       6.611  -0.373  -3.614  1.00  0.00     0.166 HD
BRANCH  12  14
HETATM   14  N   UNL     1       4.019  -0.575  -3.617  1.00  0.00    -0.267 NA
HETATM   15  C   UNL     1       4.619  -0.244  -4.922  1.00  0.00     0.097 C 
HETATM   16  C   UNL     1       4.007  -1.245  -5.895  1.00  0.00     0.016 C 
HETATM   17  C   UNL     1       3.826  -2.486  -5.044  1.00  0.00     0.016 C 
HETATM   18  C   UNL     1       3.458  -1.937  -3.669  1.00  0.00     0.097 C 
ENDBRANCH  12  14
ENDBRANCH   4   7
BRANCH   3  19
HETATM   19  C   UNL     1      -0.117   0.810   0.721  1.00  0.00     0.172 C 
HETATM   20  C   UNL     1       0.108   2.325   0.795  1.00  0.00     0.034 C 
HETATM   21  C   UNL     1      -1.055   3.050   1.457  1.00  0.00     0.004 C 
HETATM   22  C   UNL     1      -0.946   3.106   2.975  1.00  0.00     0.015 C 
HETATM   23  C   UNL     1      -0.305   1.900   3.647  1.00  0.00     0.095 C 
HETATM   24  N   UNL     1      -0.741   0.607   3.164  1.00  0.00    -0.261 NA
HETATM   25  C   UNL     1      -0.200   0.017   2.047  1.00  0.00     0.220 C 
HETATM   26  H   UNL     1      -0.809  -0.094   3.894  1.00  0.00     0.130 HD
HETATM   27  O   UNL     1       0.022  -1.197   2.088  1.00  0.00    -0.278 OA
ENDBRANCH   3  19
TORSDOF 3
