REMARK  2 active torsions:
REMARK  status: ('A' for Active; 'I' for Inactive)
REMARK    1  A    between atoms: C_4  and  C_5 
REMARK    2  A    between atoms: C_8  and  C_12 
ROOT
HETATM    1  C   UNL     2       4.371  -0.515   2.386  1.00  0.00     0.147 A 
HETATM    2  N   UNL     2       4.698  -1.652   3.018  1.00  0.00    -0.327 N 
ATOM      3  HN  UNL     2       5.608  -1.946   3.372  1.00  0.00     0.169 HD
HETATM    4  C   UNL     2       3.523  -2.307   3.068  1.00  0.00     0.109 A 
HETATM    5  N   UNL     2       2.535  -1.589   2.495  1.00  0.00    -0.247 N 
ATOM      6  HN  UNL     2       1.555  -1.854   2.401  1.00  0.00     0.196 HD
HETATM    7  O   UNL     2       3.093  -0.489   2.088  1.00  0.00    -0.223 OA
ENDROOT
BRANCH   4   8
HETATM    8  C   UNL     2       3.371  -3.689   3.655  1.00  0.00     0.083 C 
HETATM    9  C   UNL     2       4.327  -4.672   2.953  1.00  0.00     0.016 C 
HETATM   10  C   UNL     2       3.923  -4.845   1.483  1.00  0.00     0.031 C 
HETATM   11  C   UNL     2       2.463  -5.310   1.401  1.00  0.00     0.269 C 
HETATM   12  N   UNL     2       1.574  -4.360   2.089  1.00  0.00     0.084 N 
HETATM   13  C   UNL     2       1.931  -4.224   3.511  1.00  0.00     0.281 C 
HETATM   14  H   UNL     2       0.591  -4.712   2.022  1.00  0.00     0.315 HD
ENDBRANCH   4   8
BRANCH   1  15
HETATM   15  C   UNL     2       5.346   0.565   2.056  1.00  0.00     0.082 C 
HETATM   16  C   UNL     2       4.957   1.863   2.748  1.00  0.00     0.013 C 
ENDBRANCH   1  15
TORSDOF 2
