REMARK  3 active torsions:
REMARK  status: ('A' for Active; 'I' for Inactive)
REMARK    1  A    between atoms: C_7  and  C_8 
REMARK    2  A    between atoms: C_8  and  C_9 
REMARK       I    between atoms: C_9  and  N_11 
REMARK    3  A    between atoms: N_11  and  C_12 
ROOT
HETATM    1  C   UNL     1       1.038  -0.407   0.524  1.00  0.00     0.089 C 
HETATM    2  C   UNL     1       2.528  -0.341   0.351  1.00  0.00     0.080 A 
HETATM    3  N   UNL     1       3.073  -0.594  -0.790  1.00  0.00    -0.349 N 
ATOM      4  HN  UNL     1       2.504  -0.857  -1.595  1.00  0.00     0.167 HD
HETATM    5  C   UNL     1       4.440  -0.500  -0.894  1.00  0.00     0.018 A 
HETATM    6  C   UNL     1       4.958  -0.765  -2.285  1.00  0.00     0.069 C 
HETATM    7  C   UNL     1       5.252  -0.198   0.142  1.00  0.00     0.041 A 
HETATM    8  C   UNL     1       4.601   0.043   1.452  1.00  0.00     0.255 A 
HETATM    9  O   UNL     1       5.254   0.264   2.469  1.00  0.00    -0.268 OA
HETATM   10  N   UNL     1       3.242  -0.000   1.459  1.00  0.00    -0.313 N 
HETATM   11  H   UNL     1       2.787   0.174   2.343  1.00  0.00     0.170 HD
ENDROOT
BRANCH   7  12
HETATM   12  C   UNL     1       6.742  -0.028   0.122  1.00  0.00     0.149 C 
BRANCH  12  13
HETATM   13  C   UNL     1       7.448  -1.328   0.476  1.00  0.00     0.222 C 
HETATM   14  O   UNL     1       7.733  -2.158  -0.385  1.00  0.00    -0.273 OA
HETATM   15  N   UNL     1       7.765  -1.483   1.811  1.00  0.00    -0.356 N 
HETATM   16  H   UNL     1       7.254  -0.914   2.483  1.00  0.00     0.162 HD
BRANCH  15  17
HETATM   17  C   UNL     1       8.454  -2.673   2.277  1.00  0.00     0.084 C 
HETATM   18  C   UNL     1       7.514  -3.840   2.594  1.00  0.00     0.025 C 
HETATM   19  C   UNL     1       8.200  -4.641   3.706  1.00  0.00     0.002 C 
HETATM   20  C   UNL     1       9.488  -3.894   4.036  1.00  0.00     0.002 C 
HETATM   21  C   UNL     1       9.225  -2.467   3.577  1.00  0.00     0.025 C 
ENDBRANCH  15  17
ENDBRANCH  12  13
ENDBRANCH   7  12
TORSDOF 3
