REMARK  7 active torsions:
REMARK  status: ('A' for Active; 'I' for Inactive)
REMARK    1  A    between atoms: N_5  and  C_6 
REMARK    2  A    between atoms: C_6  and  C_7 
REMARK    3  A    between atoms: C_7  and  O_8 
REMARK    4  A    between atoms: C_7  and  C_9 
REMARK    5  A    between atoms: C_9  and  O_10 
REMARK    6  A    between atoms: O_10  and  C_11 
REMARK    7  A    between atoms: C_11  and  C_12 
ROOT
HETATM    1  C   UNL     1       3.122   1.133   2.339  1.00  0.00     0.070 C 
HETATM    2  C   UNL     1       3.535   0.554   1.002  1.00  0.00     0.029 A 
HETATM    3  N   UNL     1       4.194  -0.559   1.031  1.00  0.00    -0.300 N 
ATOM      4  HN  UNL     1       4.414  -1.012   1.918  1.00  0.00     0.187 HD
HETATM    5  N   UNL     1       4.588  -1.113  -0.156  1.00  0.00    -0.254 N 
HETATM    6  C   UNL     1       4.290  -0.579  -1.399  1.00  0.00     0.283 A 
HETATM    7  O   UNL     1       4.621  -1.119  -2.454  1.00  0.00    -0.265 OA
HETATM    8  C   UNL     1       3.552   0.712  -1.396  1.00  0.00     0.121 A 
HETATM    9  C   UNL     1       3.285   1.305  -2.660  1.00  0.00     0.105 C 
HETATM   10  N   UNL     1       3.046   1.844  -3.658  1.00  0.00    -0.191 NA
HETATM   11  C   UNL     1       3.173   1.289  -0.241  1.00  0.00    -0.012 A 
HETATM   12  C   UNL     1       2.433   2.591  -0.111  1.00  0.00     0.052 C 
ENDROOT
BRANCH   5  13
HETATM   13  C   UNL     1       5.344  -2.363  -0.066  1.00  0.00     0.186 C 
BRANCH  13  14
HETATM   14  C   UNL     1       4.446  -3.614  -0.133  1.00  0.00     0.162 C 
BRANCH  14  15
HETATM   15  O   UNL     1       3.686  -3.681  -1.348  1.00  0.00    -0.392 OA
HETATM   16  H   UNL     1       4.208  -3.265  -2.062  1.00  0.00     0.210 HD
ENDBRANCH  14  15
BRANCH  14  17
HETATM   17  C   UNL     1       5.292  -4.889  -0.024  1.00  0.00     0.201 C 
BRANCH  17  18
HETATM   18  O   UNL     1       6.041  -4.872   1.186  1.00  0.00    -0.384 OA
BRANCH  18  19
HETATM   19  C   UNL     1       6.880  -6.015   1.321  1.00  0.00     0.206 C 
BRANCH  19  20
HETATM   20  C   UNL     1       7.621  -5.885   2.627  1.00  0.00    -0.035 A 
HETATM   21  C   UNL     1       6.908  -5.834   3.836  1.00  0.00     0.011 A 
HETATM   22  C   UNL     1       7.578  -5.679   5.050  1.00  0.00     0.024 A 
HETATM   23  C   UNL     1       8.967  -5.578   5.064  1.00  0.00     0.034 A 
HETATM   24 CL   UNL     1       9.794  -5.368   6.558  1.00  0.00    -0.084 Cl
HETATM   25  C   UNL     1       9.690  -5.638   3.875  1.00  0.00     0.024 A 
HETATM   26  C   UNL     1       9.019  -5.792   2.658  1.00  0.00     0.011 A 
ENDBRANCH  19  20
ENDBRANCH  18  19
ENDBRANCH  17  18
ENDBRANCH  14  17
ENDBRANCH  13  14
ENDBRANCH   5  13
TORSDOF 7
