REMARK  4 active torsions:
REMARK  status: ('A' for Active; 'I' for Inactive)
REMARK    1  A    between atoms: N_1  and  C_8 
REMARK    2  A    between atoms: N_2  and  C_7 
REMARK    3  A    between atoms: C_8  and  C_9 
REMARK       I    between atoms: C_9  and  N_11 
REMARK    4  A    between atoms: N_11  and  C_15 
ROOT
HETATM    1  N   UNL     1      -1.069   1.283   0.666  1.00  0.00    -0.255 N 
HETATM    2  N   UNL     1      -0.961  -0.600   2.088  1.00  0.00    -0.279 N 
HETATM    3  C   UNL     1      -1.597   0.587   1.742  1.00  0.00     0.334 C 
HETATM    4  C   UNL     1       0.221   1.078   0.187  1.00  0.00     0.292 C 
HETATM    5  C   UNL     1       0.921  -0.092   0.760  1.00  0.00     0.200 C 
HETATM    6  C   UNL     1       0.307  -0.889   1.636  1.00  0.00     0.146 C 
HETATM    7  O   UNL     1      -2.601   0.992   2.331  1.00  0.00    -0.246 OA
HETATM    8  O   UNL     1       0.781   1.814  -0.616  1.00  0.00    -0.264 OA
HETATM    9  F   UNL     1       2.182  -0.320   0.350  1.00  0.00    -0.199 F 
ENDROOT
BRANCH   1  10
HETATM   10  C   UNL     1      -1.865   2.387   0.147  1.00  0.00     0.240 C 
BRANCH  10  11
HETATM   11  C   UNL     1      -3.124   1.832  -0.543  1.00  0.00     0.240 C 
HETATM   12  N   UNL     1      -4.239   1.771   0.289  1.00  0.00    -0.326 N 
HETATM   13  H   UNL     1      -4.047   1.852   1.288  1.00  0.00     0.169 HD
HETATM   14  O   UNL     1      -3.060   1.388  -1.688  1.00  0.00    -0.271 OA
BRANCH  12  15
HETATM   15  C   UNL     1      -5.499   1.216  -0.048  1.00  0.00     0.035 A 
HETATM   16  C   UNL     1      -5.895   0.993  -1.368  1.00  0.00     0.037 A 
HETATM   17  C   UNL     1      -7.056   0.271  -1.611  1.00  0.00    -0.050 A 
HETATM   18  C   UNL     1      -7.867  -0.171  -0.569  1.00  0.00    -0.052 A 
HETATM   19  C   UNL     1      -7.585  -0.155  -2.942  1.00  0.00     0.039 C 
HETATM   20  C   UNL     1      -9.024  -0.968  -1.082  1.00  0.00     0.039 C 
HETATM   21  C   UNL     1      -7.552   0.136   0.744  1.00  0.00     0.010 A 
HETATM   22  C   UNL     1      -8.637  -1.202  -2.552  1.00  0.00     0.009 C 
HETATM   23  C   UNL     1      -6.357   0.827   1.001  1.00  0.00     0.030 A 
ENDBRANCH  12  15
ENDBRANCH  10  11
ENDBRANCH   1  10
BRANCH   2  24
HETATM   24  C   UNL     1      -1.677  -1.465   3.017  1.00  0.00     0.232 C 
HETATM   25  O   UNL     1      -0.975  -2.691   3.286  1.00  0.00    -0.366 OA
HETATM   26  C   UNL     1      -1.955  -3.716   3.541  1.00  0.00     0.170 C 
HETATM   27  C   UNL     1      -3.327  -3.106   3.344  1.00  0.00     0.031 C 
HETATM   28  C   UNL     1      -3.032  -1.914   2.478  1.00  0.00     0.056 C 
ENDBRANCH   2  24
TORSDOF 4
