REMARK  7 active torsions:
REMARK  status: ('A' for Active; 'I' for Inactive)
REMARK    1  A    between atoms: C_7  and  S_8 
REMARK    2  A    between atoms: S_8  and  C_9 
REMARK    3  A    between atoms: C_9  and  C_10 
REMARK    4  A    between atoms: C_9  and  C_14 
REMARK    5  A    between atoms: C_10  and  N_11 
REMARK    6  A    between atoms: N_20  and  C_21 
REMARK    7  A    between atoms: C_21  and  C_22 
REMARK       I    between atoms: C_22  and  N_24 
ROOT
HETATM    1  C   UNL     1       1.627  -0.183  -0.457  1.00  0.00     0.091 C 
HETATM    2  C   UNL     1       3.066  -0.181  -0.087  1.00  0.00     0.096 A 
HETATM    3  N   UNL     1       3.689  -1.141   0.564  1.00  0.00    -0.287 N 
ATOM      4  HN  UNL     1       3.254  -1.981   0.945  1.00  0.00     0.188 HD
HETATM    5  N   UNL     1       5.021  -0.823   0.644  1.00  0.00    -0.278 N 
ATOM      6  HN  UNL     1       5.746  -1.383   1.093  1.00  0.00     0.189 HD
HETATM    7  C   UNL     1       5.198   0.328   0.042  1.00  0.00     0.164 A 
HETATM    8  N   UNL     1       3.981   0.814  -0.386  1.00  0.00    -0.306 N 
ENDROOT
BRANCH   7   9
HETATM    9  S   UNL     1       6.724   1.129  -0.123  1.00  0.00    -0.074 SA
BRANCH   9  10
HETATM   10  C   UNL     1       7.978  -0.306  -0.035  1.00  0.00     0.147 C 
BRANCH  10  11
HETATM   11  C   UNL     1       7.761  -1.155  -1.277  1.00  0.00    -0.061 C 
BRANCH  11  12
HETATM   12  N   UNL     1       7.581  -1.860  -2.307  1.00  0.00    -0.369 N 
ATOM     13  HN2 UNL     1       7.728  -1.316  -1.457  1.00  0.00     0.165 HD
ATOM     14  HN1 UNL     1       7.435  -2.430  -3.140  1.00  0.00     0.165 HD
ENDBRANCH  11  12
ENDBRANCH  10  11
BRANCH  10  15
HETATM   15  C   UNL     1       9.435   0.276  -0.088  1.00  0.00     0.012 C 
HETATM   16  C   UNL     1      10.543  -0.808  -0.150  1.00  0.00     0.007 C 
HETATM   17  C   UNL     1      10.845  -1.473   1.192  1.00  0.00     0.000 C 
HETATM   18  C   UNL     1      11.132  -0.451   2.285  1.00  0.00     0.000 C 
HETATM   19  C   UNL     1      10.019   0.584   2.385  1.00  0.00     0.000 C 
HETATM   20  C   UNL     1       9.782   1.268   1.042  1.00  0.00     0.007 C 
ENDBRANCH  10  15
ENDBRANCH   9  10
ENDBRANCH   7   9
BRANCH   8  21
HETATM   21  C   UNL     1       3.688   2.037  -1.113  1.00  0.00     0.235 C 
BRANCH  21  22
HETATM   22  C   UNL     1       3.251   3.234  -0.287  1.00  0.00     0.233 C 
HETATM   23  O   UNL     1       2.942   4.297  -0.825  1.00  0.00    -0.272 OA
HETATM   24  N   UNL     1       3.172   3.140   1.064  1.00  0.00    -0.369 N 
HETATM   25  H   UNL     1       3.495   2.346   1.604  1.00  0.00     0.159 HD
HETATM   26  H   UNL     1       2.896   3.979   1.569  1.00  0.00     0.159 HD
ENDBRANCH  21  22
ENDBRANCH   8  21
TORSDOF 7
