REMARK  6 active torsions:
REMARK  status: ('A' for Active; 'I' for Inactive)
REMARK    1  A    between atoms: O_2  and  C_3 
REMARK    2  A    between atoms: C_3  and  C_4 
REMARK    3  A    between atoms: C_4  and  N_6 
REMARK    4  A    between atoms: N_6  and  C_7 
REMARK    5  A    between atoms: C_10  and  C_14 
REMARK       I    between atoms: C_14  and  N_16 
REMARK    6  A    between atoms: N_16  and  C_17 
ROOT
HETATM    1  C   UNL     1      12.616   0.841  -4.698  1.00  0.00     0.216 C 
HETATM    2  C   UNL     1      13.228  -0.542  -4.854  1.00  0.00    -0.098 C 
HETATM    3  C   UNL     1      13.752  -1.728  -4.988  1.00  0.00     0.014 C 
ENDROOT
BRANCH   1   4
HETATM    4  N   UNL     1      11.263   0.709  -4.195  1.00  0.00    -0.346 N 
HETATM    5  C   UNL     1      10.514   1.835  -3.915  1.00  0.00     0.253 C 
HETATM    6  O   UNL     1      10.983   2.964  -4.012  1.00  0.00    -0.268 OA
HETATM    7  H   UNL     1      10.846  -0.210  -4.231  1.00  0.00     0.163 HD
BRANCH   5   8
HETATM    8  C   UNL     1       9.088   1.669  -3.507  1.00  0.00     0.047 A 
HETATM    9  C   UNL     1       8.283   2.803  -3.398  1.00  0.00     0.022 A 
HETATM   10  C   UNL     1       6.932   2.672  -3.058  1.00  0.00     0.043 A 
HETATM   11  C   UNL     1       6.405   1.415  -2.778  1.00  0.00     0.080 A 
HETATM   12  N   UNL     1       7.174   0.310  -2.859  1.00  0.00    -0.356 N 
HETATM   13  C   UNL     1       8.481   0.456  -3.225  1.00  0.00     0.106 A 
ATOM     14  HN  UNL     1       6.789  -0.611  -2.652  1.00  0.00     0.166 HD
BRANCH  11  15
HETATM   15  N   UNL     1       5.036   1.315  -2.492  1.00  0.00    -0.273 NA
HETATM   16  H   UNL     1       4.686   2.173  -2.082  1.00  0.00     0.129 HD
BRANCH  15  17
HETATM   17  C   UNL     1       4.612   0.135  -1.715  1.00  0.00     0.081 C 
HETATM   18  C   UNL     1       3.077   0.125  -1.688  1.00  0.00     0.029 C 
BRANCH  17  19
HETATM   19  C   UNL     1       5.170   0.193  -0.274  1.00  0.00     0.186 C 
BRANCH  19  20
HETATM   20  O   UNL     1       4.697  -0.905   0.510  1.00  0.00    -0.394 OA
HETATM   21  C   UNL     1       5.237  -0.869   1.825  1.00  0.00     0.201 C 
ENDBRANCH  19  20
ENDBRANCH  17  19
ENDBRANCH  15  17
ENDBRANCH  11  15
ENDBRANCH   5   8
ENDBRANCH   1   4
TORSDOF 6
