REMARK  4 active torsions:
REMARK  status: ('A' for Active; 'I' for Inactive)
REMARK    1  A    between atoms: C_2  and  N_3 
REMARK    2  A    between atoms: C_2  and  C_14 
REMARK       I    between atoms: N_3  and  C_4 
REMARK       I    between atoms: C_4  and  N_6 
REMARK    3  A    between atoms: N_6  and  C_7 
REMARK    4  A    between atoms: C_14  and  N_19 
ROOT
HETATM    1  C   UNL     1       2.763   0.156  -1.501  1.00  0.00     0.035 C 
HETATM    2  C   UNL     1       2.280   0.030  -0.043  1.00  0.00     0.120 C 
ENDROOT
BRANCH   2   3
HETATM    3  N   UNL     1       0.785  -0.043  -0.066  1.00  0.00    -0.336 N 
HETATM    4  C   UNL     1       0.092  -0.913  -0.876  1.00  0.00     0.321 C 
HETATM    5  O   UNL     1       0.621  -1.569  -1.766  1.00  0.00    -0.247 OA
HETATM    6  N   UNL     1      -1.243  -1.028  -0.535  1.00  0.00    -0.309 N 
HETATM    7  H   UNL     1      -1.649  -0.289   0.017  1.00  0.00     0.170 HD
HETATM    8  H   UNL     1       0.294   0.781   0.245  1.00  0.00     0.164 HD
BRANCH   6   9
HETATM    9  C   UNL     1      -2.100  -2.046  -1.026  1.00  0.00     0.038 A 
HETATM   10  C   UNL     1      -1.633  -3.198  -1.663  1.00  0.00     0.046 A 
HETATM   11  C   UNL     1      -2.546  -4.136  -2.127  1.00  0.00     0.090 A 
HETATM   12  N   UNL     1      -3.879  -4.007  -1.983  1.00  0.00    -0.375 N 
HETATM   13  C   UNL     1      -4.308  -2.897  -1.347  1.00  0.00     0.090 A 
ATOM     14  HN  UNL     1      -4.529  -4.710  -2.335  1.00  0.00     0.164 HD
HETATM   15  C   UNL     1      -3.470  -1.907  -0.853  1.00  0.00     0.046 A 
ENDBRANCH   6   9
ENDBRANCH   2   3
BRANCH   2  16
HETATM   16  C   UNL     1       2.979  -1.073   0.959  1.00  0.00     0.179 C 
HETATM   17  C   UNL     1       2.660  -2.532   0.536  1.00  0.00     0.044 C 
HETATM   18  C   UNL     1       2.380  -3.382   1.775  1.00  0.00     0.003 C 
HETATM   19  C   UNL     1       2.142  -2.424   2.923  1.00  0.00     0.003 C 
HETATM   20  C   UNL     1       2.168  -1.022   2.316  1.00  0.00     0.044 C 
BRANCH  16  21
HETATM   21  N   UNL     1       4.421  -0.739   1.286  1.00  0.00     0.104 N 
HETATM   22  C   UNL     1       5.404  -0.550   0.202  1.00  0.00     0.299 C 
HETATM   23  C   UNL     1       5.920  -1.853  -0.412  1.00  0.00     0.198 C 
HETATM   24  O   UNL     1       6.620  -2.610   0.583  1.00  0.00    -0.388 OA
HETATM   25  C   UNL     1       5.819  -2.826   1.753  1.00  0.00     0.198 C 
HETATM   26  C   UNL     1       5.158  -1.538   2.291  1.00  0.00     0.299 C 
ENDBRANCH  16  21
ENDBRANCH   2  16
TORSDOF 4
