REMARK  3 active torsions:
REMARK  status: ('A' for Active; 'I' for Inactive)
REMARK    1  A    between atoms: C_5  and  C_6 
REMARK    2  A    between atoms: C_6  and  C_7 
REMARK       I    between atoms: C_7  and  N_9 
REMARK    3  A    between atoms: N_9  and  C_10 
ROOT
HETATM    1  C   UNL     1       5.810   1.460   0.031  1.00  0.00     0.160 C 
ENDROOT
BRANCH   1   2
HETATM    2  C   UNL     1       4.662   0.510  -0.012  1.00  0.00     0.025 A 
HETATM    3  N   UNL     1       3.673   0.619   0.956  1.00  0.00    -0.357 N 
HETATM    4  C   UNL     1       2.718  -0.257   0.728  1.00  0.00     0.047 A 
ATOM      5  HN  UNL     1       3.685   1.282   1.731  1.00  0.00     0.166 HD
HETATM    6  C   UNL     1       1.483  -0.395   1.548  1.00  0.00     0.076 C 
HETATM    7  S   UNL     1       2.964  -1.282  -0.629  1.00  0.00    -0.087 SA
HETATM    8  C   UNL     1       4.439  -0.478  -0.954  1.00  0.00     0.077 A 
ENDBRANCH   1   2
BRANCH   1   9
HETATM    9  C   UNL     1       7.132   0.735   0.177  1.00  0.00     0.223 C 
HETATM   10  O   UNL     1       7.789   0.374  -0.799  1.00  0.00    -0.273 OA
HETATM   11  N   UNL     1       7.521   0.521   1.487  1.00  0.00    -0.356 N 
HETATM   12  H   UNL     1       6.845   0.697   2.223  1.00  0.00     0.162 HD
BRANCH  11  13
HETATM   13  C   UNL     1       8.743  -0.137   1.823  1.00  0.00     0.084 A 
HETATM   14  C   UNL     1       9.154  -0.314   3.259  1.00  0.00     0.027 A 
HETATM   15  C   UNL     1       9.901   0.645   2.379  1.00  0.00     0.027 A 
ENDBRANCH  11  13
ENDBRANCH   1   9
TORSDOF 3
