REMARK  5 active torsions:
REMARK  status: ('A' for Active; 'I' for Inactive)
REMARK    1  A    between atoms: C_2  and  C_3 
REMARK    2  A    between atoms: C_2  and  N_10 
REMARK    3  A    between atoms: C_3  and  N_4 
REMARK       I    between atoms: N_10  and  C_11 
REMARK       I    between atoms: C_11  and  N_13 
REMARK    4  A    between atoms: C_16  and  C_17 
REMARK    5  A    between atoms: C_17  and  O_18 
ROOT
HETATM    1  N   UNL     1       3.009   0.097  -1.409  1.00  0.00    -0.337 N 
HETATM    2  C   UNL     1       4.329   0.356  -1.685  1.00  0.00     0.318 C 
HETATM    3  O   UNL     1       5.171   0.513  -0.810  1.00  0.00    -0.247 OA
HETATM    4  N   UNL     1       4.575   0.464  -3.044  1.00  0.00    -0.334 N 
HETATM    5  C   UNL     1       5.840   1.031  -3.500  1.00  0.00     0.128 C 
HETATM    6  C   UNL     1       5.605   1.904  -4.736  1.00  0.00     0.027 C 
HETATM    7  C   UNL     1       4.823   1.172  -5.847  1.00  0.00     0.012 C 
HETATM    8  C   UNL     1       3.550   0.535  -5.270  1.00  0.00     0.027 C 
HETATM    9  C   UNL     1       3.846  -0.316  -4.042  1.00  0.00     0.128 C 
HETATM   10  H   UNL     1       2.385   0.542  -2.070  1.00  0.00     0.164 HD
ENDROOT
BRANCH   1  11
HETATM   11  C   UNL     1       2.510  -0.068  -0.046  1.00  0.00     0.100 C 
HETATM   12  C   UNL     1       1.013   0.247  -0.043  1.00  0.00     0.034 C 
BRANCH  11  13
HETATM   13  C   UNL     1       2.812  -1.497   0.446  1.00  0.00     0.153 C 
BRANCH  13  14
HETATM   14  N   UNL     1       2.341  -1.787   1.782  1.00  0.00    -0.350 N 
HETATM   15  C   UNL     1       1.412  -2.731   2.125  1.00  0.00     0.108 A 
HETATM   16  C   UNL     1       1.304  -2.638   3.493  1.00  0.00     0.106 A 
HETATM   17  N   UNL     1       2.145  -1.672   3.982  1.00  0.00    -0.361 N 
HETATM   18  C   UNL     1       2.770  -1.188   2.931  1.00  0.00     0.182 A 
ATOM     19  HN  UNL     1       2.261  -1.389   4.955  1.00  0.00     0.166 HD
ENDBRANCH  13  14
ENDBRANCH  11  13
ENDBRANCH   1  11
BRANCH   7  20
HETATM   20  C   UNL     1       5.683   0.130  -6.575  1.00  0.00     0.168 C 
BRANCH  20  21
HETATM   21  O   UNL     1       6.792   0.754  -7.204  1.00  0.00    -0.400 OA
HETATM   22  H   UNL     1       6.444   1.386  -7.858  1.00  0.00     0.209 HD
ENDBRANCH  20  21
ENDBRANCH   7  20
TORSDOF 5
