REMARK  4 active torsions:
REMARK  status: ('A' for Active; 'I' for Inactive)
REMARK    1  A    between atoms: C_2  and  C_3 
REMARK    2  A    between atoms: C_3  and  N_4 
REMARK    3  A    between atoms: C_6  and  N_7 
REMARK       I    between atoms: N_7  and  C_8 
REMARK       I    between atoms: C_8  and  N_10 
REMARK    4  A    between atoms: N_10  and  C_11 
ROOT
HETATM    1  N   UNL     1       8.389   1.990  -2.660  1.00  0.00    -0.306 N 
HETATM    2  C   UNL     1       8.209   3.353  -2.633  1.00  0.00     0.321 C 
HETATM    3  O   UNL     1       7.560   4.000  -3.450  1.00  0.00    -0.247 OA
HETATM    4  N   UNL     1       8.865   3.979  -1.581  1.00  0.00    -0.335 N 
HETATM    5  H   UNL     1       8.926   1.545  -1.932  1.00  0.00     0.171 HD
HETATM    6  H   UNL     1       8.898   3.447  -0.723  1.00  0.00     0.164 HD
ENDROOT
BRANCH   1   7
HETATM    7  C   UNL     1       7.912   1.188  -3.691  1.00  0.00     0.070 A 
HETATM    8  C   UNL     1       7.235   1.587  -4.818  1.00  0.00     0.141 A 
HETATM    9  N   UNL     1       6.986   0.466  -5.553  1.00  0.00    -0.301 N 
HETATM   10  N   UNL     1       7.468  -0.656  -4.983  1.00  0.00    -0.308 N 
HETATM   11  C   UNL     1       8.022  -0.213  -3.847  1.00  0.00     0.138 A 
ATOM     12  HN  UNL     1       7.422  -1.613  -5.333  1.00  0.00     0.186 HD
BRANCH   9  13
HETATM   13  C   UNL     1       6.299   0.429  -6.828  1.00  0.00     0.148 C 
BRANCH  13  14
HETATM   14  C   UNL     1       4.990  -0.358  -6.807  1.00  0.00     0.017 C 
HETATM   15  C   UNL     1       3.970   0.197  -5.823  1.00  0.00     0.007 C 
ENDBRANCH  13  14
ENDBRANCH   9  13
ENDBRANCH   1   7
BRANCH   4  16
HETATM   16  C   UNL     1       8.656   5.413  -1.475  1.00  0.00     0.122 C 
HETATM   17  C   UNL     1       9.326   6.214  -2.588  1.00  0.00     0.065 C 
HETATM   18  C   UNL     1       9.275   7.643  -2.045  1.00  0.00     0.057 C 
HETATM   19  C   UNL     1      10.560   8.417  -2.329  1.00  0.00     0.045 C 
HETATM   20  C   UNL     1       8.079   8.402  -2.628  1.00  0.00     0.045 C 
HETATM   21  O   UNL     1       9.113   7.540  -0.608  1.00  0.00    -0.369 OA
HETATM   22  C   UNL     1       9.181   6.141  -0.231  1.00  0.00     0.075 C 
HETATM   23  C   UNL     1       8.289   5.911   0.988  1.00  0.00     0.048 C 
HETATM   24  C   UNL     1      10.636   5.831   0.144  1.00  0.00     0.048 C 
ENDBRANCH   4  16
TORSDOF 4
