REMARK  10 active torsions:
REMARK  status: ('A' for Active; 'I' for Inactive)
REMARK    1  A    between atoms: N_2  and  C_15 
REMARK    2  A    between atoms: C_4  and  N_9 
REMARK    3  A    between atoms: S_7  and  C_10 
REMARK    4  A    between atoms: N_9  and  C_16 
REMARK    5  A    between atoms: N_9  and  C_24 
REMARK    6  A    between atoms: C_10  and  C_16 
REMARK    7  A    between atoms: C_15  and  C_17 
REMARK    8  A    between atoms: C_17  and  C_22 
REMARK    9  A    between atoms: C_17  and  C_25 
REMARK   10  A    between atoms: C_25  and  O_27 
ROOT
HETATM    1  C   UNL     1       0.401  -0.719  -0.279  1.00  0.00     0.122 A 
HETATM    2  N   UNL     1       1.466   1.202  -0.406  1.00  0.00    -0.327 N 
HETATM    3  C   UNL     1       0.214   0.638  -0.508  1.00  0.00     0.140 A 
HETATM    4  C   UNL     1      -0.753  -1.559  -0.228  1.00  0.00     0.135 A 
HETATM    5  N   UNL     1       1.753  -0.990  -0.141  1.00  0.00    -0.346 N 
ATOM      6  HN  UNL     1       2.189  -1.902  -0.008  1.00  0.00     0.167 HD
HETATM    7  C   UNL     1       2.355   0.177  -0.218  1.00  0.00     0.185 A 
HETATM    8  N   UNL     1      -1.944  -0.963  -0.530  1.00  0.00    -0.337 N 
ATOM      9  HN  UNL     1      -2.798  -1.517  -0.595  1.00  0.00     0.168 HD
HETATM   10  N   UNL     1      -0.956   1.261  -0.725  1.00  0.00    -0.336 N 
ATOM     11  HN  UNL     1      -1.060   2.267  -0.858  1.00  0.00     0.168 HD
HETATM   12  C   UNL     1      -1.976   0.377  -0.743  1.00  0.00     0.183 A 
ENDROOT
BRANCH   2  13
HETATM   13  C   UNL     1       1.760   2.606  -0.192  1.00  0.00     0.138 C 
BRANCH  13  14
HETATM   14  C   UNL     1       2.768   3.297  -1.152  1.00  0.00     0.034 C 
BRANCH  14  15
HETATM   15  C   UNL     1       2.227   3.377  -2.608  1.00  0.00     0.019 C 
HETATM   16  C   UNL     1       3.178   3.984  -3.644  1.00  0.00     0.172 C 
HETATM   17  O   UNL     1       2.587   5.204  -4.098  1.00  0.00    -0.391 OA
HETATM   18  C   UNL     1       1.174   5.052  -3.983  1.00  0.00     0.168 C 
HETATM   19  C   UNL     1       0.948   4.193  -2.759  1.00  0.00     0.033 C 
ENDBRANCH  14  15
BRANCH  14  20
HETATM   20  C   UNL     1       3.125   4.660  -0.508  1.00  0.00     0.170 C 
BRANCH  20  21
HETATM   21  O   UNL     1       4.071   5.407  -1.246  1.00  0.00    -0.400 OA
HETATM   22  H   UNL     1       4.903   4.909  -1.297  1.00  0.00     0.209 HD
ENDBRANCH  20  21
ENDBRANCH  14  20
ENDBRANCH  13  14
ENDBRANCH   2  13
BRANCH   4  23
HETATM   23  N   UNL     1      -0.700  -2.934   0.082  1.00  0.00    -0.360 N 
BRANCH  23  24
HETATM   24  C   UNL     1      -1.795  -3.815  -0.385  1.00  0.00     0.095 C 
HETATM   25  C   UNL     1      -1.825  -5.207   0.269  1.00  0.00     0.033 C 
BRANCH  24  26
HETATM   26  C   UNL     1      -1.802  -3.959  -1.913  1.00  0.00     0.164 C 
BRANCH  26  27
HETATM   27  S   UNL     1      -0.363  -4.681  -2.680  1.00  0.00     0.142 S 
HETATM   28  O   UNL     1      -0.154  -6.023  -2.163  1.00  0.00    -0.228 OA
HETATM   29  O   UNL     1      -0.535  -4.507  -4.120  1.00  0.00    -0.228 OA
HETATM   30  C   UNL     1       1.039  -3.691  -2.221  1.00  0.00     0.161 C 
ENDBRANCH  26  27
ENDBRANCH  24  26
ENDBRANCH  23  24
BRANCH  23  31
HETATM   31  C   UNL     1       0.012  -3.220   1.343  1.00  0.00     0.120 C 
HETATM   32  C   UNL     1      -0.822  -2.950   2.592  1.00  0.00     0.026 C 
ENDBRANCH  23  31
ENDBRANCH   4  23
TORSDOF 10
