REMARK  3 active torsions:
REMARK  status: ('A' for Active; 'I' for Inactive)
REMARK    1  A    between atoms: N_2  and  C_4 
REMARK    2  A    between atoms: C_7  and  N_8 
REMARK       I    between atoms: N_8  and  C_9 
REMARK       I    between atoms: C_9  and  N_11 
REMARK    3  A    between atoms: N_11  and  C_12 
ROOT
HETATM    1  N   UNL     1       5.473   1.570   4.636  1.00  0.00    -0.308 N 
HETATM    2  C   UNL     1       6.018   0.715   5.578  1.00  0.00     0.321 C 
HETATM    3  O   UNL     1       5.533  -0.343   5.962  1.00  0.00    -0.247 OA
HETATM    4  N   UNL     1       7.230   1.163   6.051  1.00  0.00    -0.338 N 
HETATM    5  H   UNL     1       5.821   2.514   4.613  1.00  0.00     0.170 HD
HETATM    6  H   UNL     1       7.457   2.135   5.919  1.00  0.00     0.164 HD
ENDROOT
BRANCH   1   7
HETATM    7  C   UNL     1       4.340   1.270   3.845  1.00  0.00     0.051 A 
HETATM    8  C   UNL     1       3.848  -0.016   3.686  1.00  0.00     0.034 A 
HETATM    9  C   UNL     1       2.702  -0.236   2.927  1.00  0.00     0.044 A 
HETATM   10  C   UNL     1       2.054   0.831   2.309  1.00  0.00     0.081 A 
HETATM   11  N   UNL     1       2.554   2.084   2.393  1.00  0.00    -0.354 N 
HETATM   12  C   UNL     1       3.671   2.274   3.152  1.00  0.00     0.119 A 
ATOM     13  HN  UNL     1       2.110   2.862   1.905  1.00  0.00     0.166 HD
BRANCH  10  14
HETATM   14  N   UNL     1       0.851   0.559   1.621  1.00  0.00    -0.278 NA
HETATM   15  C   UNL     1       0.504   1.555   0.616  1.00  0.00     0.118 C 
HETATM   16  C   UNL     1      -0.217   0.217   2.563  1.00  0.00     0.118 C 
ENDBRANCH  10  14
ENDBRANCH   1   7
BRANCH   4  17
HETATM   17  C   UNL     1       7.938   0.429   7.100  1.00  0.00     0.086 C 
HETATM   18  C   UNL     1       7.439   0.827   8.496  1.00  0.00     0.025 C 
HETATM   19  C   UNL     1       7.812   2.267   8.842  1.00  0.00     0.002 C 
HETATM   20  C   UNL     1       9.310   2.522   8.692  1.00  0.00     0.000 C 
HETATM   21  C   UNL     1       9.856   2.076   7.337  1.00  0.00     0.002 C 
HETATM   22  C   UNL     1       9.451   0.643   6.997  1.00  0.00     0.025 C 
ENDBRANCH   4  17
TORSDOF 3
