REMARK  7 active torsions:
REMARK  status: ('A' for Active; 'I' for Inactive)
REMARK    1  A    between atoms: N_2  and  C_13 
REMARK    2  A    between atoms: C_6  and  N_7 
REMARK    3  A    between atoms: C_13  and  C_14 
REMARK    4  A    between atoms: C_14  and  O_25 
REMARK    5  A    between atoms: C_17  and  C_22 
REMARK    6  A    between atoms: O_21  and  C_26 
REMARK    7  A    between atoms: O_21  and  C_22 
ROOT
HETATM    1  C   UNL     1       0.163  -0.853  -0.805  1.00  0.00     0.117 A 
HETATM    2  N   UNL     1       1.171   0.973  -1.463  1.00  0.00    -0.324 N 
HETATM    3  C   UNL     1       0.044   0.527  -0.828  1.00  0.00     0.140 A 
HETATM    4  N   UNL     1       1.317  -1.243  -1.463  1.00  0.00    -0.346 N 
ATOM      5  HN  UNL     1       1.640  -2.195  -1.634  1.00  0.00     0.167 HD
HETATM    6  C   UNL     1      -0.850  -1.578  -0.130  1.00  0.00     0.114 A 
HETATM    7  C   UNL     1       1.908  -0.124  -1.820  1.00  0.00     0.185 A 
HETATM    8  N   UNL     1      -0.950   1.269  -0.316  1.00  0.00    -0.336 N 
ATOM      9  HN  UNL     1      -1.011   2.285  -0.386  1.00  0.00     0.168 HD
HETATM   10  N   UNL     1      -1.859  -0.859   0.435  1.00  0.00    -0.341 N 
ATOM     11  HN  UNL     1      -2.605  -1.328   0.949  1.00  0.00     0.167 HD
HETATM   12  C   UNL     1      -1.857   0.487   0.304  1.00  0.00     0.183 A 
ENDROOT
BRANCH   6  13
HETATM   13  N   UNL     1      -0.815  -2.976  -0.031  1.00  0.00    -0.265 NA
HETATM   14  C   UNL     1      -1.477  -3.547   1.153  1.00  0.00     0.129 C 
HETATM   15  C   UNL     1      -1.097  -5.045   1.269  1.00  0.00     0.135 C 
HETATM   16  C   UNL     1      -1.432  -5.769  -0.045  1.00  0.00     0.034 C 
HETATM   17  C   UNL     1      -0.850  -5.064  -1.264  1.00  0.00     0.017 C 
HETATM   18  C   UNL     1      -1.234  -3.591  -1.293  1.00  0.00     0.097 C 
BRANCH  15  19
HETATM   19  O   UNL     1      -1.800  -5.649   2.367  1.00  0.00    -0.384 OA
BRANCH  19  20
HETATM   20  C   UNL     1      -1.316  -6.958   2.676  1.00  0.00     0.172 C 
BRANCH  20  21
HETATM   21  C   UNL     1      -2.079  -7.510   3.837  1.00  0.00     0.009 A 
HETATM   22  C   UNL     1      -1.876  -8.952   4.237  1.00  0.00     0.007 A 
HETATM   23  C   UNL     1      -3.179  -8.521   3.624  1.00  0.00     0.007 A 
ENDBRANCH  20  21
ENDBRANCH  19  20
ENDBRANCH  15  19
ENDBRANCH   6  13
BRANCH   2  24
HETATM   24  C   UNL     1       1.591   2.357  -1.592  1.00  0.00     0.171 C 
BRANCH  24  25
HETATM   25  C   UNL     1       1.184   3.035  -2.902  1.00  0.00     0.097 C 
HETATM   26  C   UNL     1       1.687   2.382  -4.175  1.00  0.00     0.068 C 
HETATM   27  C   UNL     1       1.778   3.540  -5.155  1.00  0.00     0.170 C 
HETATM   28  O   UNL     1       1.935   4.745  -4.400  1.00  0.00    -0.388 OA
HETATM   29  C   UNL     1       1.837   4.420  -3.004  1.00  0.00     0.207 C 
BRANCH  25  30
HETATM   30  O   UNL     1      -0.237   3.202  -2.990  1.00  0.00    -0.386 OA
HETATM   31  H   UNL     1      -0.679   2.376  -2.718  1.00  0.00     0.210 HD
ENDBRANCH  25  30
ENDBRANCH  24  25
ENDBRANCH   2  24
TORSDOF 7
