REMARK  2 active torsions:
REMARK  status: ('A' for Active; 'I' for Inactive)
REMARK    1  A    between atoms: C_8  and  N_9 
REMARK       I    between atoms: N_9  and  C_10 
REMARK       I    between atoms: C_10  and  N_12 
REMARK    2  A    between atoms: N_12  and  C_13 
ROOT
HETATM    1  N   UNL     1       2.301  -2.564   0.365  1.00  0.00    -0.294 N 
HETATM    2  C   UNL     1       0.957  -2.473   0.626  1.00  0.00     0.322 C 
HETATM    3  O   UNL     1       0.388  -1.546   1.185  1.00  0.00    -0.247 OA
HETATM    4  N   UNL     1       0.295  -3.625   0.246  1.00  0.00    -0.330 N 
HETATM    5  H   UNL     1       2.675  -3.488   0.520  1.00  0.00     0.172 HD
HETATM    6  H   UNL     1       0.731  -4.193  -0.468  1.00  0.00     0.165 HD
ENDROOT
BRANCH   1   7
HETATM    7  C   UNL     1       3.231  -1.594   0.765  1.00  0.00     0.114 A 
HETATM    8  C   UNL     1       3.132  -0.229   0.478  1.00  0.00    -0.018 A 
HETATM    9  C   UNL     1       2.052   0.374  -0.379  1.00  0.00     0.052 C 
HETATM   10  C   UNL     1       4.133   0.614   0.987  1.00  0.00     0.012 A 
HETATM   11  C   UNL     1       5.192   0.084   1.713  1.00  0.00     0.018 A 
HETATM   12  C   UNL     1       5.230  -1.284   1.894  1.00  0.00     0.089 A 
HETATM   13  N   UNL     1       4.290  -2.130   1.417  1.00  0.00    -0.352 N 
ATOM     14  HN  UNL     1       4.375  -3.138   1.544  1.00  0.00     0.166 HD
ENDBRANCH   1   7
BRANCH   4  15
HETATM   15  C   UNL     1      -1.162  -3.764   0.409  1.00  0.00     0.172 C 
HETATM   16  C   UNL     1      -1.442  -4.673   1.604  1.00  0.00     0.034 C 
HETATM   17  C   UNL     1      -2.904  -4.636   2.034  1.00  0.00     0.004 C 
HETATM   18  C   UNL     1      -3.812  -5.594   1.271  1.00  0.00     0.015 C 
HETATM   19  C   UNL     1      -3.545  -5.756  -0.218  1.00  0.00     0.095 C 
HETATM   20  N   UNL     1      -3.120  -4.567  -0.928  1.00  0.00    -0.261 NA
HETATM   21  C   UNL     1      -1.782  -4.238  -0.921  1.00  0.00     0.220 C 
HETATM   22  H   UNL     1      -3.415  -4.605  -1.898  1.00  0.00     0.130 HD
HETATM   23  O   UNL     1      -1.166  -4.232  -1.989  1.00  0.00    -0.278 OA
ENDBRANCH   4  15
TORSDOF 2
