REMARK  5 active torsions:
REMARK  status: ('A' for Active; 'I' for Inactive)
REMARK    1  A    between atoms: N_6  and  C_7 
REMARK    2  A    between atoms: C_7  and  C_8 
REMARK    3  A    between atoms: C_8  and  C_9 
REMARK    4  A    between atoms: C_9  and  N_10 
REMARK       I    between atoms: N_10  and  C_11 
REMARK       I    between atoms: C_11  and  N_13 
REMARK    5  A    between atoms: N_13  and  C_14 
ROOT
HETATM    1  N   UNL     1       2.498  -5.837  -2.996  1.00  0.00    -0.343 N 
HETATM    2  C   UNL     1       2.889  -7.141  -3.222  1.00  0.00     0.322 C 
HETATM    3  O   UNL     1       3.620  -7.437  -4.159  1.00  0.00    -0.247 OA
HETATM    4  N   UNL     1       2.348  -7.995  -2.300  1.00  0.00    -0.288 N 
HETATM    5  H   UNL     1       2.332  -5.611  -2.026  1.00  0.00     0.164 HD
HETATM    6  H   UNL     1       1.489  -7.713  -1.852  1.00  0.00     0.172 HD
ENDROOT
BRANCH   1   7
HETATM    7  C   UNL     1       3.052  -4.804  -3.849  1.00  0.00     0.126 C 
BRANCH   7   8
HETATM    8  C   UNL     1       2.554  -3.405  -3.515  1.00  0.00     0.050 C 
BRANCH   8   9
HETATM    9  C   UNL     1       3.069  -2.927  -2.151  1.00  0.00     0.274 C 
BRANCH   9  10
HETATM   10  N   UNL     1       2.597  -1.582  -1.783  1.00  0.00     0.088 N 
HETATM   11  C   UNL     1       3.108  -0.548  -2.698  1.00  0.00     0.272 C 
HETATM   12  C   UNL     1       2.620   0.849  -2.315  1.00  0.00     0.031 C 
HETATM   13  C   UNL     1       2.954   1.180  -0.866  1.00  0.00     0.007 C 
HETATM   14  C   UNL     1       2.474   0.079   0.086  1.00  0.00     0.010 C 
HETATM   15  C   UNL     1       0.949   0.080   0.235  1.00  0.00     0.011 C 
HETATM   16  C   UNL     1       2.992  -1.286  -0.392  1.00  0.00     0.276 C 
ENDBRANCH   9  10
ENDBRANCH   8   9
ENDBRANCH   7   8
ENDBRANCH   1   7
BRANCH   4  17
HETATM   17  C   UNL     1       2.593  -9.345  -2.251  1.00  0.00     0.168 A 
HETATM   18  N   UNL     1       1.803 -10.193  -1.629  1.00  0.00    -0.279 N 
HETATM   19  N   UNL     1       2.245 -11.497  -1.741  1.00  0.00    -0.303 N 
ATOM     20  HN  UNL     1       0.961  -9.919  -1.122  1.00  0.00     0.189 HD
HETATM   21  C   UNL     1       3.376 -11.566  -2.409  1.00  0.00     0.160 A 
ATOM     22  HN  UNL     1       1.756 -12.304  -1.354  1.00  0.00     0.186 HD
HETATM   23  S   UNL     1       3.997 -10.056  -2.916  1.00  0.00    -0.046 SA
ENDBRANCH   4  17
TORSDOF 5
