REMARK  4 active torsions:
REMARK  status: ('A' for Active; 'I' for Inactive)
REMARK    1  A    between atoms: C_8  and  N_9 
REMARK       I    between atoms: N_9  and  C_10 
REMARK       I    between atoms: C_10  and  N_12 
REMARK    2  A    between atoms: N_12  and  C_13 
REMARK    3  A    between atoms: N_16  and  C_17 
REMARK    4  A    between atoms: C_17  and  C_18 
ROOT
HETATM    1  N   UNL     1       5.396   2.452   0.465  1.00  0.00    -0.295 N 
HETATM    2  C   UNL     1       6.763   2.453   0.614  1.00  0.00     0.322 C 
HETATM    3  O   UNL     1       7.460   1.583   1.116  1.00  0.00    -0.247 OA
HETATM    4  N   UNL     1       7.316   3.592   0.061  1.00  0.00    -0.338 N 
HETATM    5  H   UNL     1       4.969   3.242   0.015  1.00  0.00     0.172 HD
HETATM    6  H   UNL     1       6.779   4.430   0.227  1.00  0.00     0.164 HD
ENDROOT
BRANCH   4   7
HETATM    7  C   UNL     1       8.774   3.749   0.030  1.00  0.00     0.089 C 
HETATM    8  C   UNL     1       9.148   5.146  -0.480  1.00  0.00     0.055 C 
HETATM    9  C   UNL     1       8.892   5.274  -1.984  1.00  0.00     0.274 C 
HETATM   10  N   UNL     1       9.579   4.257  -2.792  1.00  0.00     0.089 N 
HETATM   11  C   UNL     1       9.181   2.912  -2.330  1.00  0.00     0.274 C 
HETATM   12  C   UNL     1       9.454   2.678  -0.842  1.00  0.00     0.055 C 
BRANCH  10  13
HETATM   13  C   UNL     1      11.047   4.380  -2.813  1.00  0.00     0.279 C 
BRANCH  13  14
HETATM   14  C   UNL     1      11.584   5.698  -3.366  1.00  0.00     0.040 C 
HETATM   15  C   UNL     1      11.211   5.990  -4.808  1.00  0.00     0.035 C 
HETATM   16  C   UNL     1      12.459   6.621  -5.402  1.00  0.00     0.168 C 
HETATM   17  O   UNL     1      13.437   6.711  -4.358  1.00  0.00    -0.391 OA
HETATM   18  C   UNL     1      13.101   5.711  -3.396  1.00  0.00     0.173 C 
ENDBRANCH  13  14
ENDBRANCH  10  13
ENDBRANCH   4   7
BRANCH   1  19
HETATM   19  C   UNL     1       4.580   1.361   0.787  1.00  0.00     0.109 A 
HETATM   20  N   UNL     1       5.136   0.228   1.243  1.00  0.00    -0.346 N 
HETATM   21  C   UNL     1       4.353  -0.830   1.531  1.00  0.00     0.007 A 
ATOM     22  HN  UNL     1       6.146   0.168   1.371  1.00  0.00     0.167 HD
HETATM   23  C   UNL     1       2.975  -0.789   1.384  1.00  0.00     0.031 A 
HETATM   24  C   UNL     1       5.070  -2.051   2.013  1.00  0.00     0.068 C 
HETATM   25  C   UNL     1       2.385   0.389   0.919  1.00  0.00    -0.057 A 
HETATM   26  C   UNL     1       0.898   0.491   0.759  1.00  0.00     0.048 C 
HETATM   27  C   UNL     1       3.207   1.477   0.604  1.00  0.00     0.055 A 
ENDBRANCH   1  19
TORSDOF 4
