REMARK  4 active torsions:
REMARK  status: ('A' for Active; 'I' for Inactive)
REMARK    1  A    between atoms: S_2  and  C_5 
REMARK    2  A    between atoms: C_8  and  N_9 
REMARK       I    between atoms: N_9  and  C_10 
REMARK       I    between atoms: C_10  and  N_12 
REMARK    3  A    between atoms: N_12  and  C_13 
REMARK    4  A    between atoms: C_13  and  C_14 
ROOT
HETATM    1  N   UNL     1       3.773  -4.181  -4.129  1.00  0.00    -0.308 N 
HETATM    2  C   UNL     1       3.564  -5.521  -3.900  1.00  0.00     0.320 C 
HETATM    3  O   UNL     1       3.353  -6.033  -2.807  1.00  0.00    -0.247 OA
HETATM    4  N   UNL     1       3.577  -6.274  -5.044  1.00  0.00    -0.340 N 
HETATM    5  H   UNL     1       3.693  -3.872  -5.086  1.00  0.00     0.170 HD
HETATM    6  H   UNL     1       3.938  -5.904  -5.911  1.00  0.00     0.164 HD
ENDROOT
BRANCH   1   7
HETATM    7  C   UNL     1       3.864  -3.191  -3.120  1.00  0.00     0.051 A 
HETATM    8  C   UNL     1       4.079  -3.495  -1.771  1.00  0.00     0.034 A 
HETATM    9  C   UNL     1       4.181  -2.479  -0.825  1.00  0.00     0.044 A 
HETATM   10  C   UNL     1       4.080  -1.179  -1.277  1.00  0.00     0.128 A 
HETATM   11  N   UNL     1       3.874  -0.815  -2.570  1.00  0.00    -0.355 N 
HETATM   12  C   UNL     1       3.772  -1.840  -3.455  1.00  0.00     0.118 A 
ATOM     13  HN  UNL     1       3.801   0.161  -2.856  1.00  0.00     0.166 HD
BRANCH  10  14
HETATM   14  S   UNL     1       4.315   0.154  -0.125  1.00  0.00     0.187 S 
HETATM   15  C   UNL     1       4.096   1.631  -1.074  1.00  0.00     0.168 C 
HETATM   16  O   UNL     1       5.703   0.103   0.302  1.00  0.00    -0.222 OA
HETATM   17  O   UNL     1       3.236   0.083   0.844  1.00  0.00    -0.222 OA
ENDBRANCH  10  14
ENDBRANCH   1   7
BRANCH   4  18
HETATM   18  C   UNL     1       3.306  -7.705  -4.989  1.00  0.00     0.156 C 
BRANCH  18  19
HETATM   19  C   UNL     1       4.479  -8.574  -5.443  1.00  0.00     0.139 C 
HETATM   20  C   UNL     1       5.786  -8.393  -4.685  1.00  0.00     0.035 C 
HETATM   21  C   UNL     1       6.860  -8.605  -5.736  1.00  0.00     0.029 C 
HETATM   22  C   UNL     1       6.104  -8.850  -7.026  1.00  0.00     0.168 C 
HETATM   23  O   UNL     1       4.796  -8.309  -6.821  1.00  0.00    -0.384 OA
ENDBRANCH  18  19
ENDBRANCH   4  18
TORSDOF 4
