REMARK  6 active torsions:
REMARK  status: ('A' for Active; 'I' for Inactive)
REMARK    1  A    between atoms: N_6  and  C_7 
REMARK    2  A    between atoms: C_7  and  C_8 
REMARK    3  A    between atoms: C_8  and  O_9 
REMARK    4  A    between atoms: C_8  and  C_10 
REMARK    5  A    between atoms: C_10  and  O_11 
REMARK    6  A    between atoms: O_11  and  C_12 
ROOT
HETATM    1  C   UNL     1      10.880  -2.648   0.054  1.00  0.00     0.069 A 
HETATM    2  C   UNL     1      11.756  -1.562   0.103  1.00  0.00     0.038 A 
HETATM    3  C   UNL     1      13.140  -1.773   0.080  1.00  0.00     0.025 A 
HETATM    4  C   UNL     1      13.656  -3.070   0.010  1.00  0.00     0.044 A 
HETATM    5  C   UNL     1      15.074  -3.279  -0.014  1.00  0.00     0.099 C 
HETATM    6  N   UNL     1      16.222  -3.442  -0.030  1.00  0.00    -0.191 NA
HETATM    7  C   UNL     1      12.781  -4.159  -0.034  1.00  0.00     0.025 A 
HETATM    8  C   UNL     1      11.400  -3.945  -0.013  1.00  0.00     0.038 A 
ENDROOT
BRANCH   1   9
HETATM    9  O   UNL     1       9.515  -2.581   0.076  1.00  0.00    -0.349 OA
BRANCH   9  10
HETATM   10  C   UNL     1       8.928  -1.279   0.020  1.00  0.00     0.209 C 
BRANCH  10  11
HETATM   11  C   UNL     1       7.397  -1.407  -0.049  1.00  0.00     0.161 C 
BRANCH  11  12
HETATM   12  C   UNL     1       6.761  -0.005   0.011  1.00  0.00     0.166 C 
BRANCH  12  13
HETATM   13  N   UNL     1       5.305  -0.027  -0.072  1.00  0.00    -0.307 N 
HETATM   14  C   UNL     1       4.545  -0.087   1.063  1.00  0.00     0.186 A 
HETATM   15  N   UNL     1       3.257  -0.090   1.093  1.00  0.00    -0.355 N 
HETATM   16  C   UNL     1       2.597  -0.041  -0.110  1.00  0.00     0.017 A 
ATOM     17  HN  UNL     1       2.748  -0.127   1.976  1.00  0.00     0.166 HD
HETATM   18  C   UNL     1       1.093  -0.043   0.004  1.00  0.00     0.069 C 
HETATM   19  C   UNL     1       3.214   0.002  -1.307  1.00  0.00     0.028 A 
HETATM   20  C   UNL     1       4.702   0.006  -1.313  1.00  0.00     0.256 A 
HETATM   21  C   UNL     1       2.503   0.058  -2.623  1.00  0.00     0.056 C 
HETATM   22  O   UNL     1       5.339   0.058  -2.365  1.00  0.00    -0.267 OA
ENDBRANCH  12  13
ENDBRANCH  11  12
BRANCH  11  23
HETATM   23  O   UNL     1       7.023  -2.099  -1.246  1.00  0.00    -0.392 OA
HETATM   24  H   UNL     1       7.109  -1.494  -2.007  1.00  0.00     0.210 HD
ENDBRANCH  11  23
ENDBRANCH  10  11
ENDBRANCH   9  10
ENDBRANCH   1   9
TORSDOF 6
