REMARK  4 active torsions:
REMARK  status: ('A' for Active; 'I' for Inactive)
REMARK    1  A    between atoms: O_2  and  C_3 
REMARK    2  A    between atoms: C_3  and  C_4 
REMARK    3  A    between atoms: C_4  and  N_5 
REMARK    4  A    between atoms: C_6  and  N_18 
ROOT
HETATM    1  N   UNL     1       4.930   1.801   1.857  1.00  0.00    -0.172 N 
HETATM    2  C   UNL     1       4.727   3.173   1.728  1.00  0.00     0.685 C 
HETATM    3  N   UNL     1       5.118   3.787   2.837  1.00  0.00    -0.174 N 
ATOM      4  HN  UNL     1       5.019   4.778   3.056  1.00  0.00     0.186 HD
HETATM    5  C   UNL     1       5.675   2.831   3.620  1.00  0.00     0.160 A 
HETATM    6  N   UNL     1       6.211   2.999   4.883  1.00  0.00    -0.287 N 
HETATM    7  C   UNL     1       6.244   4.282   5.550  1.00  0.00     0.163 C 
HETATM    8  C   UNL     1       6.704   1.887   5.558  1.00  0.00     0.330 A 
HETATM    9  O   UNL     1       7.171   1.928   6.697  1.00  0.00    -0.246 OA
HETATM   10  N   UNL     1       6.663   0.678   4.895  1.00  0.00    -0.273 N 
HETATM   11  C   UNL     1       6.221   0.453   3.612  1.00  0.00     0.280 A 
HETATM   12  O   UNL     1       6.334  -0.643   3.073  1.00  0.00    -0.265 OA
HETATM   13  C   UNL     1       5.650   1.610   3.012  1.00  0.00     0.164 A 
HETATM   14  H   UNL     1       7.052  -0.109   5.387  1.00  0.00     0.173 HD
ENDROOT
BRANCH   2  15
HETATM   15  N   UNL     1       4.162   3.798   0.653  1.00  0.00    -0.217 N 
HETATM   16  C   UNL     1       4.260   3.341  -0.728  1.00  0.00     0.145 C 
HETATM   17  C   UNL     1       4.830   4.434  -1.642  1.00  0.00     0.000 C 
HETATM   18  C   UNL     1       4.821   3.970  -3.098  1.00  0.00     0.011 C 
HETATM   19  C   UNL     1       4.050   5.742  -1.488  1.00  0.00     0.011 C 
HETATM   20  C   UNL     1       4.014   6.178  -0.019  1.00  0.00     0.000 C 
HETATM   21  C   UNL     1       3.198   7.463   0.122  1.00  0.00     0.011 C 
HETATM   22  C   UNL     1       3.444   5.060   0.868  1.00  0.00     0.145 C 
ENDBRANCH   2  15
BRANCH   1  23
HETATM   23  C   UNL     1       4.385   0.722   1.049  1.00  0.00     0.174 C 
BRANCH  23  24
HETATM   24  C   UNL     1       3.493  -0.267   1.801  1.00  0.00     0.187 C 
BRANCH  24  25
HETATM   25  O   UNL     1       2.366   0.418   2.350  1.00  0.00    -0.394 OA
HETATM   26  C   UNL     1       1.606  -0.432   3.199  1.00  0.00     0.201 C 
ENDBRANCH  24  25
ENDBRANCH  23  24
ENDBRANCH   1  23
TORSDOF 4
