REMARK  2 active torsions:
REMARK  status: ('A' for Active; 'I' for Inactive)
REMARK    1  A    between atoms: C_4  and  N_5 
REMARK       I    between atoms: N_5  and  C_6 
REMARK       I    between atoms: C_6  and  N_8 
REMARK    2  A    between atoms: N_8  and  C_9 
ROOT
HETATM    1  N   UNL     1       5.804   1.737   0.074  1.00  0.00    -0.293 N 
HETATM    2  C   UNL     1       5.636   3.150   0.147  1.00  0.00     0.322 C 
HETATM    3  O   UNL     1       4.548   3.668   0.323  1.00  0.00    -0.247 OA
HETATM    4  N   UNL     1       6.801   3.849  -0.021  1.00  0.00    -0.338 N 
HETATM    5  H   UNL     1       6.726   1.354  -0.038  1.00  0.00     0.172 HD
HETATM    6  H   UNL     1       7.709   3.413   0.004  1.00  0.00     0.164 HD
ENDROOT
BRANCH   1   7
HETATM    7  C   UNL     1       4.700   0.872   0.115  1.00  0.00     0.127 A 
HETATM    8  C   UNL     1       3.369   1.220   0.193  1.00  0.00     0.076 A 
HETATM    9  C   UNL     1       2.638   0.018   0.199  1.00  0.00     0.025 A 
HETATM   10  C   UNL     1       1.165  -0.126   0.278  1.00  0.00     0.070 C 
HETATM   11  N   UNL     1       3.448  -1.041   0.123  1.00  0.00    -0.302 N 
HETATM   12  N   UNL     1       4.690  -0.508   0.067  1.00  0.00    -0.281 N 
ATOM     13  HN  UNL     1       3.189  -2.027   0.110  1.00  0.00     0.186 HD
HETATM   14  C   UNL     1       5.797  -1.422  -0.037  1.00  0.00     0.179 C 
ENDBRANCH   1   7
BRANCH   4  15
HETATM   15  C   UNL     1       6.678   5.291  -0.020  1.00  0.00     0.086 C 
HETATM   16  C   UNL     1       7.791   6.071  -0.703  1.00  0.00     0.025 C 
HETATM   17  C   UNL     1       7.601   7.505  -0.178  1.00  0.00     0.002 C 
HETATM   18  C   UNL     1       6.663   7.400   1.029  1.00  0.00     0.002 C 
HETATM   19  C   UNL     1       6.641   5.917   1.372  1.00  0.00     0.025 C 
ENDBRANCH   4  15
TORSDOF 2
