REMARK  7 active torsions:
REMARK  status: ('A' for Active; 'I' for Inactive)
REMARK    1  A    between atoms: C_2  and  C_3 
REMARK       I    between atoms: C_2  and  N_13 
REMARK    2  A    between atoms: C_3  and  C_4 
REMARK    3  A    between atoms: C_4  and  S_5 
REMARK    4  A    between atoms: S_5  and  C_8 
REMARK    5  A    between atoms: N_13  and  C_14 
REMARK    6  A    between atoms: C_14  and  C_15 
REMARK    7  A    between atoms: C_15  and  C_16 
ROOT
HETATM    1  O   UNL     1       1.059   0.093   0.283  1.00  0.00    -0.274 OA
HETATM    2  C   UNL     1       2.250  -0.098   0.062  1.00  0.00     0.218 C 
HETATM    3  N   UNL     1       2.951   0.499  -0.963  1.00  0.00    -0.361 N 
HETATM    4  H   UNL     1       3.857   0.107  -1.193  1.00  0.00     0.162 HD
ENDROOT
BRANCH   2   5
HETATM    5  C   UNL     1       3.092  -1.000   0.930  1.00  0.00     0.117 C 
BRANCH   5   6
HETATM    6  C   UNL     1       2.195  -1.869   1.801  1.00  0.00     0.150 C 
BRANCH   6   7
HETATM    7  S   UNL     1       3.170  -2.968   2.803  1.00  0.00     0.149 S 
HETATM    8  O   UNL     1       3.957  -3.787   1.899  1.00  0.00    -0.227 OA
HETATM    9  O   UNL     1       3.820  -2.172   3.826  1.00  0.00    -0.227 OA
BRANCH   7  10
HETATM   10  C   UNL     1       1.977  -4.037   3.584  1.00  0.00     0.108 C 
HETATM   11  C   UNL     1       0.952  -3.316   4.458  1.00  0.00     0.020 C 
HETATM   12  C   UNL     1       0.708  -4.224   5.667  1.00  0.00     0.001 C 
HETATM   13  C   UNL     1       1.508  -5.494   5.413  1.00  0.00     0.001 C 
HETATM   14  C   UNL     1       2.646  -5.040   4.518  1.00  0.00     0.020 C 
ENDBRANCH   7  10
ENDBRANCH   6   7
ENDBRANCH   5   6
ENDBRANCH   2   5
BRANCH   3  15
HETATM   15  C   UNL     1       2.310   1.304  -1.996  1.00  0.00     0.127 C 
BRANCH  15  16
HETATM   16  C   UNL     1       1.437   2.445  -1.461  1.00  0.00     0.059 C 
BRANCH  16  17
HETATM   17  C   UNL     1       0.888   3.323  -2.550  1.00  0.00    -0.041 A 
HETATM   18  C   UNL     1      -0.332   3.037  -3.168  1.00  0.00     0.010 A 
HETATM   19  C   UNL     1      -0.830   3.895  -4.144  1.00  0.00     0.018 A 
HETATM   20  C   UNL     1      -0.080   5.009  -4.479  1.00  0.00     0.087 A 
HETATM   21  N   UNL     1       1.112   5.309  -3.919  1.00  0.00    -0.375 N 
HETATM   22  C   UNL     1       1.566   4.464  -2.967  1.00  0.00     0.094 A 
ATOM     23  HN  UNL     1       1.643   6.133  -4.201  1.00  0.00     0.164 HD
ENDBRANCH  16  17
ENDBRANCH  15  16
ENDBRANCH   3  15
TORSDOF 7
