REMARK  4 active torsions:
REMARK  status: ('A' for Active; 'I' for Inactive)
REMARK    1  A    between atoms: C_2  and  C_3 
REMARK    2  A    between atoms: C_2  and  C_14 
REMARK    3  A    between atoms: C_3  and  N_4 
REMARK       I    between atoms: N_4  and  C_5 
REMARK       I    between atoms: C_5  and  N_7 
REMARK    4  A    between atoms: N_7  and  C_8 
ROOT
HETATM    1  N   UNL     1       2.771   1.620  -1.856  1.00  0.00    -0.342 N 
HETATM    2  C   UNL     1       3.114   2.859  -2.332  1.00  0.00     0.316 C 
HETATM    3  O   UNL     1       3.703   3.701  -1.668  1.00  0.00    -0.247 OA
HETATM    4  N   UNL     1       2.807   3.011  -3.659  1.00  0.00    -0.336 N 
HETATM    5  H   UNL     1       1.951   1.182  -2.260  1.00  0.00     0.164 HD
HETATM    6  H   UNL     1       2.058   2.436  -4.007  1.00  0.00     0.164 HD
ENDROOT
BRANCH   1   7
HETATM    7  C   UNL     1       3.044   1.303  -0.464  1.00  0.00     0.135 C 
BRANCH   7   8
HETATM    8  C   UNL     1       2.636  -0.114  -0.037  1.00  0.00     0.057 C 
HETATM    9  C   UNL     1       3.320  -1.196  -0.873  1.00  0.00     0.018 C 
BRANCH   8  10
HETATM   10  C   UNL     1       1.138  -0.276  -0.084  1.00  0.00     0.056 A 
HETATM   11  N   UNL     1       0.410  -0.175  -1.180  1.00  0.00    -0.357 N 
HETATM   12  C   UNL     1      -0.926  -0.397  -0.882  1.00  0.00     0.012 A 
ATOM     13  HN  UNL     1       0.776   0.035  -2.109  1.00  0.00     0.166 HD
HETATM   14  C   UNL     1      -1.927  -0.357  -1.978  1.00  0.00     0.068 C 
HETATM   15  C   UNL     1      -1.191  -0.645   0.451  1.00  0.00     0.076 A 
HETATM   16  S   UNL     1       0.260  -0.613   1.357  1.00  0.00    -0.086 SA
ENDBRANCH   8  10
ENDBRANCH   7   8
ENDBRANCH   1   7
BRANCH   4  17
HETATM   17  C   UNL     1       3.076   4.275  -4.325  1.00  0.00     0.116 C 
HETATM   18  C   UNL     1       2.653   4.275  -5.786  1.00  0.00     0.054 C 
HETATM   19  C   UNL     1       3.760   5.001  -6.525  1.00  0.00     0.170 C 
HETATM   20  O   UNL     1       4.646   5.550  -5.548  1.00  0.00    -0.384 OA
HETATM   21  C   UNL     1       4.541   4.740  -4.361  1.00  0.00     0.140 C 
HETATM   22  C   UNL     1       5.591   3.634  -4.443  1.00  0.00     0.041 C 
ENDBRANCH   4  17
TORSDOF 4
