REMARK  5 active torsions:
REMARK  status: ('A' for Active; 'I' for Inactive)
REMARK       I    between atoms: C_2  and  N_4 
REMARK    1  A    between atoms: N_4  and  C_5 
REMARK    2  A    between atoms: C_5  and  C_6 
REMARK    3  A    between atoms: C_6  and  N_7 
REMARK       I    between atoms: N_7  and  C_8 
REMARK    4  A    between atoms: C_8  and  C_10 
REMARK    5  A    between atoms: C_13  and  N_19 
ROOT
HETATM    1  C   UNL     1       8.964  -3.746  -1.576  1.00  0.00     0.139 A 
HETATM    2  N   UNL     1       9.617  -4.339  -0.530  1.00  0.00    -0.184 N 
ATOM      3  HN  UNL     1       9.106  -4.841   0.196  1.00  0.00     0.184 HD
HETATM    4  C   UNL     1      10.955  -4.235  -0.495  1.00  0.00     0.680 A 
HETATM    5  N   UNL     1      11.646  -3.625  -1.471  1.00  0.00    -0.200 N 
ATOM      6  HN  UNL     1      12.663  -3.567  -1.430  1.00  0.00     0.183 HD
HETATM    7  C   UNL     1      10.967  -3.091  -2.507  1.00  0.00     0.132 A 
HETATM    8  C   UNL     1       9.603  -3.109  -2.619  1.00  0.00     0.082 A 
HETATM    9 CL   UNL     1       8.873  -2.426  -4.012  1.00  0.00    -0.080 Cl
ENDROOT
BRANCH   1  10
HETATM   10  C   UNL     1       7.465  -3.812  -1.507  1.00  0.00     0.270 C 
HETATM   11  N   UNL     1       6.943  -4.885  -0.810  1.00  0.00    -0.354 N 
HETATM   12  H   UNL     1       7.590  -5.548  -0.394  1.00  0.00     0.162 HD
HETATM   13  O   UNL     1       6.749  -2.965  -2.029  1.00  0.00    -0.266 OA
BRANCH  11  14
HETATM   14  C   UNL     1       5.509  -5.087  -0.677  1.00  0.00     0.142 C 
BRANCH  14  15
HETATM   15  C   UNL     1       4.883  -5.766  -1.903  1.00  0.00     0.142 C 
BRANCH  15  16
HETATM   16  N   UNL     1       3.445  -5.946  -1.785  1.00  0.00    -0.360 N 
HETATM   17  C   UNL     1       2.901  -7.025  -1.128  1.00  0.00     0.213 C 
HETATM   18  C   UNL     1       1.394  -7.030  -1.126  1.00  0.00     0.117 C 
HETATM   19  O   UNL     1       3.566  -7.900  -0.589  1.00  0.00    -0.274 OA
HETATM   20  H   UNL     1       2.838  -5.221  -2.146  1.00  0.00     0.162 HD
ENDBRANCH  15  16
ENDBRANCH  14  15
ENDBRANCH  11  14
ENDBRANCH   1  10
BRANCH   4  21
HETATM   21  N   UNL     1      11.655  -4.740   0.564  1.00  0.00    -0.214 N 
HETATM   22  C   UNL     1      11.019  -5.448   1.670  1.00  0.00     0.167 C 
HETATM   23  C   UNL     1      11.432  -4.803   3.005  1.00  0.00     0.188 C 
HETATM   24  O   UNL     1      12.862  -4.708   3.134  1.00  0.00    -0.388 OA
HETATM   25  C   UNL     1      13.408  -3.916   2.066  1.00  0.00     0.188 C 
HETATM   26  C   UNL     1      13.100  -4.538   0.695  1.00  0.00     0.167 C 
ENDBRANCH   4  21
TORSDOF 5
