REMARK  5 active torsions:
REMARK  status: ('A' for Active; 'I' for Inactive)
REMARK    1  A    between atoms: C_2  and  C_3 
REMARK    2  A    between atoms: C_2  and  N_10 
REMARK    3  A    between atoms: C_3  and  N_4 
REMARK    4  A    between atoms: N_10  and  C_11 
REMARK    5  A    between atoms: C_11  and  C_12 
REMARK       I    between atoms: C_12  and  N_14 
ROOT
HETATM    1  N   UNL     1       3.158   0.872  -1.237  1.00  0.00     0.098 N 
HETATM    2  H   UNL     1       2.739   1.762  -0.956  1.00  0.00     0.317 HD
ENDROOT
BRANCH   1   3
HETATM    3  C   UNL     1       2.635  -0.245  -0.424  1.00  0.00     0.236 C 
HETATM    4  C   UNL     1       1.105  -0.172  -0.493  1.00  0.00     0.044 C 
BRANCH   3   5
HETATM    5  C   UNL     1       3.159  -1.602  -0.939  1.00  0.00     0.183 C 
BRANCH   5   6
HETATM    6  N   UNL     1       2.646  -2.765  -0.245  1.00  0.00    -0.302 N 
HETATM    7  C   UNL     1       1.956  -3.802  -0.806  1.00  0.00     0.111 A 
HETATM    8  C   UNL     1       1.799  -4.737   0.189  1.00  0.00     0.037 A 
HETATM    9  C   UNL     1       2.431  -4.172   1.311  1.00  0.00     0.108 A 
HETATM   10  N   UNL     1       2.955  -2.971   1.050  1.00  0.00    -0.310 N 
ATOM     11  HN  UNL     1       3.468  -2.356   1.682  1.00  0.00     0.186 HD
ENDBRANCH   5   6
ENDBRANCH   3   5
ENDBRANCH   1   3
BRANCH   1  12
HETATM   12  C   UNL     1       4.625   1.010  -1.164  1.00  0.00     0.372 C 
BRANCH  12  13
HETATM   13  C   UNL     1       5.104   2.275  -1.892  1.00  0.00     0.248 C 
HETATM   14  O   UNL     1       4.307   3.089  -2.366  1.00  0.00    -0.271 OA
HETATM   15  N   UNL     1       6.485   2.459  -1.972  1.00  0.00    -0.350 N 
HETATM   16  C   UNL     1       6.996   3.706  -2.539  1.00  0.00     0.126 C 
HETATM   17  C   UNL     1       7.490   1.590  -1.355  1.00  0.00     0.130 C 
HETATM   18  C   UNL     1       8.122   3.438  -3.533  1.00  0.00     0.020 C 
HETATM   19  C   UNL     1       9.213   2.567  -2.914  1.00  0.00     0.007 C 
HETATM   20  C   UNL     1       8.615   1.270  -2.351  1.00  0.00    -0.001 C 
HETATM   21  C   UNL     1       9.696   0.410  -1.703  1.00  0.00     0.011 C 
ENDBRANCH  12  13
ENDBRANCH   1  12
TORSDOF 5
