REMARK  4 active torsions:
REMARK  status: ('A' for Active; 'I' for Inactive)
REMARK    1  A    between atoms: C_8  and  N_9 
REMARK       I    between atoms: N_9  and  C_10 
REMARK       I    between atoms: C_10  and  N_12 
REMARK    2  A    between atoms: N_12  and  C_13 
REMARK    3  A    between atoms: C_18  and  C_19 
REMARK    4  A    between atoms: C_19  and  O_20 
ROOT
HETATM    1  N   UNL     1       3.219  -3.887   0.131  1.00  0.00    -0.140 N 
HETATM    2  C   UNL     1       2.031  -4.586   0.143  1.00  0.00     0.334 C 
HETATM    3  O   UNL     1       2.011  -5.778   0.433  1.00  0.00    -0.246 OA
HETATM    4  N   UNL     1       0.919  -3.832  -0.073  1.00  0.00    -0.337 N 
HETATM    5  H   UNL     1       4.021  -4.398   0.469  1.00  0.00     0.189 HD
HETATM    6  H   UNL     1       1.121  -2.974  -0.579  1.00  0.00     0.164 HD
ENDROOT
BRANCH   1   7
HETATM    7  C   UNL     1       3.329  -2.577  -0.286  1.00  0.00     0.703 A 
HETATM    8  N   UNL     1       4.395  -1.745  -0.034  1.00  0.00    -0.127 N 
HETATM    9  C   UNL     1       5.508  -1.955   0.852  1.00  0.00     0.197 C 
HETATM   10  N   UNL     1       4.203  -0.532  -0.589  1.00  0.00    -0.280 N 
HETATM   11  C   UNL     1       3.002  -0.677  -1.144  1.00  0.00     0.215 A 
ATOM     12  HN  UNL     1       4.817   0.283  -0.585  1.00  0.00     0.188 HD
HETATM   13  N   UNL     1       2.427  -1.897  -0.969  1.00  0.00    -0.185 N 
ATOM     14  HN  UNL     1       1.512  -2.213  -1.291  1.00  0.00     0.185 HD
ENDBRANCH   1   7
BRANCH   4  15
HETATM   15  C   UNL     1      -0.471  -4.261  -0.055  1.00  0.00     0.092 C 
HETATM   16  C   UNL     1      -0.941  -4.607  -1.471  1.00  0.00     0.026 C 
HETATM   17  C   UNL     1      -0.913  -3.392  -2.402  1.00  0.00     0.002 C 
HETATM   18  C   UNL     1      -1.645  -2.179  -1.826  1.00  0.00     0.001 C 
HETATM   19  C   UNL     1      -1.288  -1.869  -0.371  1.00  0.00     0.009 C 
HETATM   20  C   UNL     1      -1.368  -3.132   0.510  1.00  0.00     0.032 C 
BRANCH  20  21
HETATM   21  C   UNL     1      -1.054  -2.846   1.982  1.00  0.00     0.170 C 
BRANCH  21  22
HETATM   22  O   UNL     1      -2.009  -1.940   2.532  1.00  0.00    -0.400 OA
HETATM   23  H   UNL     1      -1.740  -1.041   2.277  1.00  0.00     0.209 HD
ENDBRANCH  21  22
ENDBRANCH  20  21
ENDBRANCH   4  15
TORSDOF 4
