REMARK  3 active torsions:
REMARK  status: ('A' for Active; 'I' for Inactive)
REMARK    1  A    between atoms: C_2  and  C_5 
REMARK    2  A    between atoms: C_10  and  N_11 
REMARK       I    between atoms: N_11  and  C_12 
REMARK    3  A    between atoms: C_12  and  C_14 
ROOT
HETATM    1  C   UNL     1       2.758   1.199   0.923  1.00  0.00     0.065 A 
HETATM    2  C   UNL     1       2.244   2.440   0.932  1.00  0.00     0.107 A 
HETATM    3  N   UNL     1       2.673   3.370   1.847  1.00  0.00    -0.331 N 
HETATM    4  C   UNL     1       3.646   3.134   2.795  1.00  0.00     0.272 A 
HETATM    5  O   UNL     1       4.015   3.998   3.586  1.00  0.00    -0.266 OA
HETATM    6  C   UNL     1       4.238   1.744   2.813  1.00  0.00     0.104 A 
HETATM    7  C   UNL     1       3.766   0.863   1.915  1.00  0.00     0.052 A 
HETATM    8  H   UNL     1       2.282   4.305   1.841  1.00  0.00     0.168 HD
ENDROOT
BRANCH   6   9
HETATM    9  N   UNL     1       5.229   1.486   3.746  1.00  0.00    -0.320 N 
HETATM   10  C   UNL     1       5.896   0.297   3.936  1.00  0.00     0.251 C 
HETATM   11  O   UNL     1       5.682  -0.752   3.326  1.00  0.00    -0.270 OA
HETATM   12  H   UNL     1       5.498   2.272   4.343  1.00  0.00     0.169 HD
BRANCH  10  13
HETATM   13  C   UNL     1       6.985   0.323   5.013  1.00  0.00     0.213 C 
HETATM   14  C   UNL     1       6.660  -0.689   6.104  1.00  0.00     0.044 C 
HETATM   15  C   UNL     1       7.266  -0.102   7.359  1.00  0.00     0.029 C 
HETATM   16  C   UNL     1       7.923   1.179   6.890  1.00  0.00     0.168 C 
HETATM   17  O   UNL     1       7.216   1.552   5.696  1.00  0.00    -0.376 OA
ENDBRANCH  10  13
ENDBRANCH   6   9
BRANCH   1  18
HETATM   18  C   UNL     1       2.352   0.154  -0.080  1.00  0.00     0.418 C 
HETATM   19  F   UNL     1       3.017  -1.021   0.063  1.00  0.00    -0.166 F 
HETATM   20  F   UNL     1       2.580   0.575  -1.351  1.00  0.00    -0.166 F 
HETATM   21  F   UNL     1       1.028  -0.135   0.004  1.00  0.00    -0.166 F 
ENDBRANCH   1  18
TORSDOF 3
