REMARK  4 active torsions:
REMARK  status: ('A' for Active; 'I' for Inactive)
REMARK    1  A    between atoms: C_7  and  N_10 
REMARK    2  A    between atoms: C_15  and  C_16 
REMARK    3  A    between atoms: C_16  and  C_17 
REMARK    4  A    between atoms: C_17  and  O_18 
ROOT
HETATM    1  N   UNL     1       5.070  -2.367  -0.249  1.00  0.00    -0.209 N 
HETATM    2  C   UNL     1       6.179  -2.374  -1.206  1.00  0.00     0.168 C 
HETATM    3  C   UNL     1       6.246  -3.780  -1.827  1.00  0.00     0.188 C 
HETATM    4  O   UNL     1       6.416  -4.790  -0.818  1.00  0.00    -0.387 OA
HETATM    5  C   UNL     1       5.334  -4.748   0.134  1.00  0.00     0.193 C 
HETATM    6  C   UNL     1       5.243  -3.364   0.835  1.00  0.00     0.128 C 
ENDROOT
BRANCH   1   7
HETATM    7  C   UNL     1       4.492  -1.144  -0.011  1.00  0.00     0.680 A 
HETATM    8  N   UNL     1       5.195  -0.015  -0.196  1.00  0.00    -0.202 N 
HETATM    9  C   UNL     1       4.526   1.147  -0.092  1.00  0.00     0.108 A 
ATOM     10  HN  UNL     1       6.193  -0.038  -0.406  1.00  0.00     0.183 HD
HETATM   11  C   UNL     1       3.179   1.235   0.157  1.00  0.00     0.042 A 
HETATM   12  C   UNL     1       2.527   0.033   0.313  1.00  0.00     0.024 A 
HETATM   13  C   UNL     1       1.050  -0.033   0.548  1.00  0.00     0.068 C 
HETATM   14  N   UNL     1       3.176  -1.145   0.258  1.00  0.00    -0.196 N 
ATOM     15  HN  UNL     1       2.678  -2.021   0.417  1.00  0.00     0.184 HD
ENDBRANCH   1   7
BRANCH   6  16
HETATM   16  C   UNL     1       4.166  -3.344   1.932  1.00  0.00     0.054 C 
BRANCH  16  17
HETATM   17  C   UNL     1       4.423  -4.354   3.048  1.00  0.00     0.166 C 
BRANCH  17  18
HETATM   18  O   UNL     1       3.440  -4.221   4.068  1.00  0.00    -0.401 OA
HETATM   19  H   UNL     1       3.484  -3.310   4.404  1.00  0.00     0.209 HD
ENDBRANCH  17  18
ENDBRANCH  16  17
ENDBRANCH   6  16
TORSDOF 4
