REMARK  6 active torsions:
REMARK  status: ('A' for Active; 'I' for Inactive)
REMARK    1  A    between atoms: O_2  and  C_3 
REMARK    2  A    between atoms: C_3  and  C_4 
REMARK    3  A    between atoms: C_4  and  N_5 
REMARK    4  A    between atoms: C_8  and  C_13 
REMARK       I    between atoms: C_13  and  N_15 
REMARK    5  A    between atoms: N_15  and  C_16 
REMARK    6  A    between atoms: C_16  and  C_17 
ROOT
HETATM    1  N   UNL     1       4.987  -1.248   2.400  1.00  0.00    -0.255 N 
HETATM    2  N   UNL     1       5.738  -0.538   3.331  1.00  0.00    -0.290 N 
ATOM      3  HN  UNL     1       5.932   0.457   3.215  1.00  0.00     0.187 HD
HETATM    4  C   UNL     1       6.180  -1.204   4.356  1.00  0.00     0.116 A 
HETATM    5  C   UNL     1       5.931  -2.639   4.604  1.00  0.00     0.042 A 
HETATM    6  C   UNL     1       5.186  -3.288   3.712  1.00  0.00     0.078 A 
HETATM    7  C   UNL     1       4.643  -2.590   2.531  1.00  0.00     0.262 A 
HETATM    8  O   UNL     1       3.933  -3.217   1.750  1.00  0.00    -0.267 OA
ENDROOT
BRANCH   4   9
HETATM    9  C   UNL     1       7.030  -0.498   5.419  1.00  0.00     0.269 C 
HETATM   10  O   UNL     1       7.456  -1.133   6.373  1.00  0.00    -0.266 OA
HETATM   11  N   UNL     1       7.251   0.843   5.216  1.00  0.00    -0.353 N 
HETATM   12  H   UNL     1       6.836   1.290   4.403  1.00  0.00     0.162 HD
BRANCH  11  13
HETATM   13  C   UNL     1       8.057   1.639   6.129  1.00  0.00     0.155 C 
BRANCH  13  14
HETATM   14  C   UNL     1       7.274   2.770   6.798  1.00  0.00     0.139 C 
HETATM   15  C   UNL     1       6.060   2.338   7.608  1.00  0.00     0.035 C 
HETATM   16  C   UNL     1       5.045   3.442   7.386  1.00  0.00     0.029 C 
HETATM   17  C   UNL     1       5.719   4.415   6.442  1.00  0.00     0.168 C 
HETATM   18  O   UNL     1       6.776   3.687   5.810  1.00  0.00    -0.384 OA
ENDBRANCH  13  14
ENDBRANCH  11  13
ENDBRANCH   4   9
BRANCH   1  19
HETATM   19  C   UNL     1       4.480  -0.503   1.251  1.00  0.00     0.178 C 
BRANCH  19  20
HETATM   20  C   UNL     1       3.092   0.081   1.505  1.00  0.00     0.189 C 
BRANCH  20  21
HETATM   21  O   UNL     1       2.644   0.769   0.333  1.00  0.00    -0.394 OA
HETATM   22  C   UNL     1       1.355   1.340   0.523  1.00  0.00     0.201 C 
ENDBRANCH  20  21
ENDBRANCH  19  20
ENDBRANCH   1  19
TORSDOF 6
