REMARK  7 active torsions:
REMARK  status: ('A' for Active; 'I' for Inactive)
REMARK    1  A    between atoms: O_2  and  C_3 
REMARK    2  A    between atoms: C_3  and  C_4 
REMARK    3  A    between atoms: C_4  and  N_6 
REMARK       I    between atoms: N_6  and  C_7 
REMARK    4  A    between atoms: C_7  and  C_9 
REMARK    5  A    between atoms: C_9  and  N_10 
REMARK    6  A    between atoms: C_11  and  C_20 
REMARK    7  A    between atoms: C_14  and  C_15 
REMARK       I    between atoms: C_15  and  N_17 
ROOT
HETATM    1  N   UNL     1       8.148  -3.847  -2.356  1.00  0.00    -0.300 N 
HETATM    2  C   UNL     1       9.006  -4.285  -1.325  1.00  0.00     0.122 C 
HETATM    3  C   UNL     1      10.312  -4.457  -1.610  1.00  0.00     0.036 C 
HETATM    4  C   UNL     1      10.835  -4.238  -2.931  1.00  0.00     0.025 C 
HETATM    5  C   UNL     1      10.064  -3.762  -3.921  1.00  0.00     0.100 C 
HETATM    6  C   UNL     1       8.630  -3.473  -3.621  1.00  0.00     0.264 C 
HETATM    7  O   UNL     1       7.906  -2.953  -4.474  1.00  0.00    -0.267 OA
ENDROOT
BRANCH   1   8
HETATM    8  C   UNL     1       6.706  -3.685  -2.169  1.00  0.00     0.235 C 
BRANCH   8   9
HETATM    9  C   UNL     1       6.360  -2.288  -1.642  1.00  0.00     0.236 C 
HETATM   10  N   UNL     1       5.398  -1.624  -2.379  1.00  0.00    -0.353 N 
HETATM   11  H   UNL     1       5.251  -1.920  -3.337  1.00  0.00     0.163 HD
HETATM   12  O   UNL     1       6.893  -1.806  -0.646  1.00  0.00    -0.272 OA
BRANCH  10  13
HETATM   13  C   UNL     1       4.930  -0.291  -2.002  1.00  0.00     0.104 C 
HETATM   14  C   UNL     1       3.547  -0.047  -2.607  1.00  0.00     0.034 C 
BRANCH  13  15
HETATM   15  C   UNL     1       5.923   0.815  -2.410  1.00  0.00     0.191 C 
BRANCH  15  16
HETATM   16  O   UNL     1       5.435   2.084  -1.963  1.00  0.00    -0.394 OA
HETATM   17  C   UNL     1       6.321   3.143  -2.298  1.00  0.00     0.201 C 
ENDBRANCH  15  16
ENDBRANCH  13  15
ENDBRANCH  10  13
ENDBRANCH   8   9
ENDBRANCH   1   8
BRANCH   2  18
HETATM   18  C   UNL     1       8.556  -4.577   0.105  1.00  0.00     0.432 C 
HETATM   19  F   UNL     1       7.252  -4.334   0.371  1.00  0.00    -0.165 F 
HETATM   20  F   UNL     1       8.758  -5.891   0.402  1.00  0.00    -0.165 F 
HETATM   21  F   UNL     1       9.283  -3.870   1.009  1.00  0.00    -0.165 F 
ENDBRANCH   2  18
BRANCH   5  22
HETATM   22  C   UNL     1      10.692  -3.587  -5.261  1.00  0.00     0.254 C 
HETATM   23  O   UNL     1      11.861  -3.883  -5.494  1.00  0.00    -0.268 OA
HETATM   24  N   UNL     1       9.900  -3.084  -6.242  1.00  0.00    -0.366 N 
HETATM   25  H   UNL     1       8.933  -2.820  -6.072  1.00  0.00     0.159 HD
HETATM   26  H   UNL     1      10.290  -2.959  -7.166  1.00  0.00     0.159 HD
ENDBRANCH   5  22
TORSDOF 7
