REMARK  5 active torsions:
REMARK  status: ('A' for Active; 'I' for Inactive)
REMARK    1  A    between atoms: O_2  and  C_3 
REMARK    2  A    between atoms: C_3  and  C_4 
REMARK    3  A    between atoms: C_4  and  N_5 
REMARK    4  A    between atoms: C_4  and  C_17 
REMARK       I    between atoms: N_5  and  C_6 
REMARK       I    between atoms: C_6  and  N_8 
REMARK    5  A    between atoms: N_8  and  C_9 
ROOT
HETATM    1  N   UNL     1       4.950   0.722   0.934  1.00  0.00    -0.336 N 
HETATM    2  C   UNL     1       4.854   1.556  -0.133  1.00  0.00     0.322 C 
HETATM    3  O   UNL     1       4.361   1.240  -1.216  1.00  0.00    -0.247 OA
HETATM    4  N   UNL     1       5.274   2.841   0.061  1.00  0.00    -0.295 N 
HETATM    5  H   UNL     1       5.492   1.082   1.716  1.00  0.00     0.164 HD
HETATM    6  H   UNL     1       5.057   3.451  -0.713  1.00  0.00     0.172 HD
ENDROOT
BRANCH   1   7
HETATM    7  C   UNL     1       4.467  -0.641   0.979  1.00  0.00     0.114 C 
BRANCH   7   8
HETATM    8  C   UNL     1       3.911  -0.981   2.384  1.00  0.00     0.192 C 
BRANCH   8   9
HETATM    9  O   UNL     1       2.801  -0.145   2.729  1.00  0.00    -0.394 OA
HETATM   10  C   UNL     1       2.282  -0.473   4.012  1.00  0.00     0.201 C 
ENDBRANCH   8   9
ENDBRANCH   7   8
BRANCH   7  11
HETATM   11  C   UNL     1       5.609  -1.575   0.647  1.00  0.00     0.010 A 
HETATM   12  C   UNL     1       6.387  -1.477  -0.646  1.00  0.00     0.007 A 
HETATM   13  C   UNL     1       5.429  -2.613  -0.434  1.00  0.00     0.007 A 
ENDBRANCH   7  11
ENDBRANCH   1   7
BRANCH   4  14
HETATM   14  C   UNL     1       5.841   3.390   1.215  1.00  0.00     0.109 A 
HETATM   15  C   UNL     1       5.886   4.770   1.337  1.00  0.00     0.049 A 
HETATM   16  C   UNL     1       6.372   5.315   2.523  1.00  0.00     0.006 A 
HETATM   17  C   UNL     1       6.840   4.473   3.527  1.00  0.00     0.025 A 
HETATM   18  C   UNL     1       6.810   3.104   3.310  1.00  0.00     0.007 A 
HETATM   19  C   UNL     1       7.337   2.130   4.319  1.00  0.00     0.068 C 
HETATM   20  N   UNL     1       6.302   2.564   2.181  1.00  0.00    -0.346 N 
ATOM     21  HN  UNL     1       6.267   1.552   2.059  1.00  0.00     0.167 HD
ENDBRANCH   4  14
TORSDOF 5
