REMARK  5 active torsions:
REMARK  status: ('A' for Active; 'I' for Inactive)
REMARK    1  A    between atoms: C_4  and  N_5 
REMARK       I    between atoms: N_5  and  C_6 
REMARK       I    between atoms: C_6  and  N_8 
REMARK    2  A    between atoms: N_8  and  C_9 
REMARK    3  A    between atoms: C_9  and  C_10 
REMARK    4  A    between atoms: C_10  and  C_11 
REMARK    5  A    between atoms: C_11  and  N_12 
ROOT
HETATM    1  N   UNL     1       3.347   6.648   0.491  1.00  0.00    -0.293 N 
HETATM    2  C   UNL     1       4.358   5.853   0.010  1.00  0.00     0.321 C 
HETATM    3  O   UNL     1       4.335   5.177  -1.010  1.00  0.00    -0.247 OA
HETATM    4  N   UNL     1       5.492   5.921   0.802  1.00  0.00    -0.343 N 
HETATM    5  H   UNL     1       3.519   7.233   1.292  1.00  0.00     0.172 HD
HETATM    6  H   UNL     1       5.340   6.039   1.794  1.00  0.00     0.164 HD
ENDROOT
BRANCH   1   7
HETATM    7  C   UNL     1       2.132   6.789  -0.155  1.00  0.00     0.132 A 
HETATM    8  C   UNL     1       1.079   7.630   0.284  1.00  0.00     0.084 A 
HETATM    9  C   UNL     1       0.080   7.445  -0.641  1.00  0.00     0.076 A 
HETATM   10  C   UNL     1      -1.288   7.955  -0.820  1.00  0.00     0.079 C 
HETATM   11  O   UNL     1       0.504   6.568  -1.583  1.00  0.00    -0.241 OA
HETATM   12  N   UNL     1       1.777   6.154  -1.275  1.00  0.00    -0.245 N 
ATOM     13  HN  UNL     1       2.343   5.489  -1.801  1.00  0.00     0.196 HD
ENDBRANCH   1   7
BRANCH   4  14
HETATM   14  C   UNL     1       6.641   5.125   0.413  1.00  0.00     0.126 C 
BRANCH  14  15
HETATM   15  C   UNL     1       7.969   5.724   0.855  1.00  0.00     0.050 C 
BRANCH  15  16
HETATM   16  C   UNL     1       8.213   7.113   0.242  1.00  0.00     0.274 C 
BRANCH  16  17
HETATM   17  N   UNL     1       9.517   7.697   0.613  1.00  0.00     0.088 N 
HETATM   18  C   UNL     1       9.683   9.050   0.049  1.00  0.00     0.272 C 
HETATM   19  C   UNL     1       9.945   9.084  -1.463  1.00  0.00     0.030 C 
HETATM   20  C   UNL     1      11.053   8.122  -1.887  1.00  0.00     0.003 C 
HETATM   21  C   UNL     1      10.861   6.743  -1.268  1.00  0.00     0.030 C 
HETATM   22  C   UNL     1      10.675   6.868   0.243  1.00  0.00     0.272 C 
ENDBRANCH  16  17
ENDBRANCH  15  16
ENDBRANCH  14  15
ENDBRANCH   4  14
TORSDOF 5
