REMARK  5 active torsions:
REMARK  status: ('A' for Active; 'I' for Inactive)
REMARK    1  A    between atoms: C_2  and  C_4 
REMARK    2  A    between atoms: C_7  and  C_8 
REMARK    3  A    between atoms: C_8  and  C_9 
REMARK       I    between atoms: C_9  and  N_11 
REMARK    4  A    between atoms: N_11  and  C_12 
REMARK    5  A    between atoms: C_12  and  C_13 
ROOT
HETATM    1  C   UNL     1       5.009  -3.825   1.726  1.00  0.00     0.160 C 
ENDROOT
BRANCH   1   2
HETATM    2  C   UNL     1       3.945  -3.139   0.934  1.00  0.00     0.025 A 
HETATM    3  N   UNL     1       2.610  -3.315   1.277  1.00  0.00    -0.356 N 
HETATM    4  C   UNL     1       1.839  -2.562   0.519  1.00  0.00     0.054 A 
ATOM      5  HN  UNL     1       2.275  -3.939   2.011  1.00  0.00     0.166 HD
HETATM    6  S   UNL     1       2.668  -1.614  -0.654  1.00  0.00    -0.086 SA
HETATM    7  C   UNL     1       4.156  -2.253  -0.107  1.00  0.00     0.077 A 
BRANCH   4   8
HETATM    8  C   UNL     1       0.335  -2.499   0.609  1.00  0.00     0.035 C 
HETATM    9  C   UNL     1      -0.272  -3.878   0.352  1.00  0.00     0.016 C 
HETATM   10  C   UNL     1      -0.112  -1.954   1.966  1.00  0.00     0.016 C 
ENDBRANCH   4   8
ENDBRANCH   1   2
BRANCH   1  11
HETATM   11  C   UNL     1       5.011  -5.340   1.668  1.00  0.00     0.223 C 
HETATM   12  O   UNL     1       6.068  -5.965   1.787  1.00  0.00    -0.273 OA
HETATM   13  N   UNL     1       3.796  -5.981   1.586  1.00  0.00    -0.358 N 
HETATM   14  H   UNL     1       2.991  -5.439   1.271  1.00  0.00     0.162 HD
BRANCH  13  15
HETATM   15  C   UNL     1       3.756  -7.428   1.490  1.00  0.00     0.154 C 
BRANCH  15  16
HETATM   16  C   UNL     1       2.345  -8.008   1.425  1.00  0.00     0.139 C 
HETATM   17  C   UNL     1       2.360  -9.534   1.427  1.00  0.00     0.035 C 
HETATM   18  C   UNL     1       1.287  -9.938   0.439  1.00  0.00     0.029 C 
HETATM   19  C   UNL     1       0.710  -8.633  -0.065  1.00  0.00     0.168 C 
HETATM   20  O   UNL     1       1.693  -7.628   0.200  1.00  0.00    -0.384 OA
ENDBRANCH  15  16
ENDBRANCH  13  15
ENDBRANCH   1  11
TORSDOF 5
