REMARK  6 active torsions:
REMARK  status: ('A' for Active; 'I' for Inactive)
REMARK    1  A    between atoms: C_2  and  N_4 
REMARK       I    between atoms: N_4  and  C_5 
REMARK    2  A    between atoms: C_5  and  C_7 
REMARK    3  A    between atoms: C_7  and  N_9 
REMARK    4  A    between atoms: N_9  and  C_10 
REMARK    5  A    between atoms: C_10  and  C_11 
REMARK    6  A    between atoms: C_11  and  N_12 
ROOT
HETATM    1  N   UNL     1       6.276  -2.795   1.659  1.00  0.00     0.098 N 
HETATM    2  H   UNL     1       6.623  -2.815   0.694  1.00  0.00     0.317 HD
ENDROOT
BRANCH   1   3
HETATM    3  C   UNL     1       4.797  -2.707   1.580  1.00  0.00     0.307 C 
HETATM    4  C   UNL     1       4.265  -3.950   0.872  1.00  0.00     0.053 C 
BRANCH   3   5
HETATM    5  C   UNL     1       4.370  -1.453   0.788  1.00  0.00     0.251 C 
HETATM    6  N   UNL     1       3.724  -0.502   1.551  1.00  0.00    -0.355 N 
HETATM    7  H   UNL     1       3.439  -0.732   2.495  1.00  0.00     0.162 HD
HETATM    8  O   UNL     1       4.651  -1.295  -0.398  1.00  0.00    -0.271 OA
BRANCH   6   9
HETATM    9  C   UNL     1       3.277   0.766   0.996  1.00  0.00     0.076 C 
HETATM   10  C   UNL     1       1.901   0.614   0.354  1.00  0.00     0.032 C 
HETATM   11  C   UNL     1       3.253   1.835   2.085  1.00  0.00     0.032 C 
ENDBRANCH   6   9
ENDBRANCH   3   5
ENDBRANCH   1   3
BRANCH   1  12
HETATM   12  C   UNL     1       6.903  -1.644   2.332  1.00  0.00     0.292 C 
BRANCH  12  13
HETATM   13  C   UNL     1       6.537  -1.495   3.810  1.00  0.00     0.178 C 
BRANCH  13  14
HETATM   14  N   UNL     1       7.183  -0.334   4.394  1.00  0.00    -0.302 N 
HETATM   15  C   UNL     1       8.362  -0.309   5.078  1.00  0.00     0.111 A 
HETATM   16  C   UNL     1       8.580   1.008   5.406  1.00  0.00     0.037 A 
HETATM   17  C   UNL     1       7.468   1.696   4.887  1.00  0.00     0.108 A 
HETATM   18  N   UNL     1       6.604   0.878   4.279  1.00  0.00    -0.310 N 
ATOM     19  HN  UNL     1       5.717   1.114   3.834  1.00  0.00     0.186 HD
ENDBRANCH  13  14
ENDBRANCH  12  13
ENDBRANCH   1  12
TORSDOF 6
