REMARK  6 active torsions:
REMARK  status: ('A' for Active; 'I' for Inactive)
REMARK    1  A    between atoms: C_2  and  C_4 
REMARK    2  A    between atoms: C_4  and  C_5 
REMARK    3  A    between atoms: C_5  and  N_6 
REMARK       I    between atoms: N_6  and  C_7 
REMARK    4  A    between atoms: C_7  and  C_9 
REMARK    5  A    between atoms: C_9  and  C_10 
REMARK    6  A    between atoms: C_13  and  N_16 
ROOT
HETATM    1  C   UNL     1       5.996  -2.843   4.706  1.00  0.00     0.026 A 
HETATM    2  C   UNL     1       6.297  -4.154   5.019  1.00  0.00     0.078 A 
HETATM    3  S   UNL     1       4.891  -4.963   5.558  1.00  0.00    -0.064 SA
HETATM    4  C   UNL     1       3.980  -3.535   5.340  1.00  0.00     0.155 A 
HETATM    5  N   UNL     1       4.676  -2.479   4.969  1.00  0.00    -0.339 N 
ATOM      6  HN  UNL     1       4.303  -1.533   4.886  1.00  0.00     0.168 HD
ENDROOT
BRANCH   1   7
HETATM    7  C   UNL     1       6.928  -1.835   4.112  1.00  0.00     0.160 C 
BRANCH   7   8
HETATM    8  C   UNL     1       6.501  -1.364   2.727  1.00  0.00     0.223 C 
HETATM    9  N   UNL     1       5.153  -1.124   2.567  1.00  0.00    -0.361 N 
HETATM   10  H   UNL     1       4.537  -1.433   3.316  1.00  0.00     0.162 HD
HETATM   11  O   UNL     1       7.328  -1.136   1.845  1.00  0.00    -0.273 OA
BRANCH   9  12
HETATM   12  C   UNL     1       4.573  -0.677   1.321  1.00  0.00     0.123 C 
BRANCH  12  13
HETATM   13  C   UNL     1       4.276  -1.821   0.349  1.00  0.00     0.023 C 
BRANCH  13  14
HETATM   14  C   UNL     1       3.256  -2.866   0.846  1.00  0.00    -0.021 C 
HETATM   15  C   UNL     1       1.892  -2.254   1.169  1.00  0.00     0.009 C 
HETATM   16  C   UNL     1       3.083  -3.963  -0.212  1.00  0.00     0.009 C 
ENDBRANCH  13  14
ENDBRANCH  12  13
ENDBRANCH   9  12
ENDBRANCH   7   8
ENDBRANCH   1   7
BRANCH   4  17
HETATM   17  N   UNL     1       2.620  -3.503   5.550  1.00  0.00    -0.278 N 
HETATM   18  C   UNL     1       1.835  -2.291   5.608  1.00  0.00     0.155 C 
HETATM   19  C   UNL     1       0.393  -2.765   5.504  1.00  0.00     0.145 C 
HETATM   20  N   UNL     1       0.477  -4.179   5.720  1.00  0.00    -0.341 N 
HETATM   21  C   UNL     1       1.792  -4.627   5.627  1.00  0.00     0.324 C 
HETATM   22  H   UNL     1      -0.270  -4.847   5.576  1.00  0.00     0.164 HD
HETATM   23  O   UNL     1       2.057  -5.815   5.568  1.00  0.00    -0.247 OA
ENDBRANCH   4  17
TORSDOF 6
