REMARK  4 active torsions:
REMARK  status: ('A' for Active; 'I' for Inactive)
REMARK    1  A    between atoms: C_5  and  N_6 
REMARK       I    between atoms: N_6  and  C_7 
REMARK       I    between atoms: C_7  and  N_9 
REMARK    2  A    between atoms: N_9  and  C_10 
REMARK    3  A    between atoms: C_10  and  C_11 
REMARK    4  A    between atoms: C_11  and  C_12 
ROOT
HETATM    1  N   UNL     1       6.686   0.131  -1.337  1.00  0.00    -0.295 N 
HETATM    2  C   UNL     1       7.339   1.328  -1.324  1.00  0.00     0.321 C 
HETATM    3  O   UNL     1       6.720   2.349  -1.611  1.00  0.00    -0.247 OA
HETATM    4  N   UNL     1       8.678   1.297  -1.076  1.00  0.00    -0.343 N 
HETATM    5  H   UNL     1       5.738   0.200  -1.666  1.00  0.00     0.172 HD
HETATM    6  H   UNL     1       8.992   0.453  -0.602  1.00  0.00     0.164 HD
ENDROOT
BRANCH   1   7
HETATM    7  C   UNL     1       7.194  -1.139  -1.028  1.00  0.00     0.108 A 
HETATM    8  C   UNL     1       6.444  -2.255  -1.394  1.00  0.00     0.052 A 
HETATM    9  C   UNL     1       6.962  -3.534  -1.147  1.00  0.00     0.047 A 
HETATM   10  C   UNL     1       8.184  -3.646  -0.514  1.00  0.00     0.131 A 
HETATM   11  F   UNL     1       8.708  -4.851  -0.267  1.00  0.00    -0.205 F 
HETATM   12  C   UNL     1       8.853  -2.497  -0.149  1.00  0.00     0.132 A 
HETATM   13  N   UNL     1       8.393  -1.244  -0.406  1.00  0.00    -0.349 N 
ATOM     14  HN  UNL     1       8.928  -0.417  -0.142  1.00  0.00     0.167 HD
ENDBRANCH   1   7
BRANCH   4  15
HETATM   15  C   UNL     1       9.529   2.473  -1.061  1.00  0.00     0.127 C 
BRANCH  15  16
HETATM   16  C   UNL     1      10.971   2.108  -1.425  1.00  0.00     0.051 C 
BRANCH  16  17
HETATM   17  C   UNL     1      11.848   3.335  -1.720  1.00  0.00     0.123 C 
HETATM   18  C   UNL     1      13.272   2.941  -2.151  1.00  0.00     0.032 C 
HETATM   19  C   UNL     1      14.277   2.922  -1.010  1.00  0.00     0.004 C 
HETATM   20  C   UNL     1      14.181   4.233  -0.255  1.00  0.00     0.026 C 
HETATM   21  C   UNL     1      12.775   4.371   0.303  1.00  0.00     0.168 C 
HETATM   22  O   UNL     1      11.777   4.345  -0.714  1.00  0.00    -0.386 OA
ENDBRANCH  16  17
ENDBRANCH  15  16
ENDBRANCH   4  15
TORSDOF 4
