REMARK  6 active torsions:
REMARK  status: ('A' for Active; 'I' for Inactive)
REMARK    1  A    between atoms: C_2  and  O_3 
REMARK    2  A    between atoms: C_2  and  C_10 
REMARK    3  A    between atoms: O_3  and  C_4 
REMARK    4  A    between atoms: C_4  and  C_5 
REMARK       I    between atoms: C_10  and  N_12 
REMARK    5  A    between atoms: N_12  and  C_13 
REMARK    6  A    between atoms: C_15  and  C_20 
ROOT
HETATM    1  C   UNL     1       3.000   0.563   1.568  1.00  0.00     0.251 C 
HETATM    2  O   UNL     1       2.391   1.337   2.309  1.00  0.00    -0.270 OA
HETATM    3  N   UNL     1       4.290   0.205   1.878  1.00  0.00    -0.320 N 
HETATM    4  H   UNL     1       4.731   0.802   2.566  1.00  0.00     0.169 HD
ENDROOT
BRANCH   3   5
HETATM    5  C   UNL     1       5.061  -0.676   1.169  1.00  0.00     0.104 A 
HETATM    6  C   UNL     1       5.978  -0.259   0.283  1.00  0.00     0.052 A 
HETATM    7  C   UNL     1       6.692  -1.203  -0.563  1.00  0.00     0.065 A 
HETATM    8  C   UNL     1       6.508  -2.522  -0.366  1.00  0.00     0.107 A 
HETATM    9  N   UNL     1       5.626  -2.977   0.579  1.00  0.00    -0.331 N 
HETATM   10  C   UNL     1       4.825  -2.158   1.343  1.00  0.00     0.272 A 
HETATM   11  H   UNL     1       5.480  -3.973   0.706  1.00  0.00     0.168 HD
HETATM   12  O   UNL     1       3.983  -2.608   2.113  1.00  0.00    -0.266 OA
BRANCH   7  13
HETATM   13  C   UNL     1       7.555  -0.682  -1.677  1.00  0.00     0.418 C 
HETATM   14  F   UNL     1       7.511   0.666  -1.808  1.00  0.00    -0.166 F 
HETATM   15  F   UNL     1       8.859  -1.016  -1.492  1.00  0.00    -0.166 F 
HETATM   16  F   UNL     1       7.186  -1.205  -2.876  1.00  0.00    -0.166 F 
ENDBRANCH   7  13
ENDBRANCH   3   5
BRANCH   1  17
HETATM   17  C   UNL     1       2.439   0.116   0.193  1.00  0.00     0.209 C 
HETATM   18  C   UNL     1       0.922  -0.012   0.208  1.00  0.00     0.050 C 
BRANCH  17  19
HETATM   19  O   UNL     1       2.890   0.950  -0.889  1.00  0.00    -0.374 OA
BRANCH  19  20
HETATM   20  C   UNL     1       2.559   2.341  -0.749  1.00  0.00     0.200 C 
BRANCH  20  21
HETATM   21  C   UNL     1       3.161   3.188  -1.875  1.00  0.00     0.145 C 
HETATM   22  C   UNL     1       2.797   2.748  -3.284  1.00  0.00     0.036 C 
HETATM   23  C   UNL     1       4.036   3.040  -4.107  1.00  0.00     0.029 C 
HETATM   24  C   UNL     1       5.041   3.595  -3.119  1.00  0.00     0.168 C 
HETATM   25  O   UNL     1       4.599   3.180  -1.823  1.00  0.00    -0.384 OA
ENDBRANCH  20  21
ENDBRANCH  19  20
ENDBRANCH  17  19
ENDBRANCH   1  17
TORSDOF 6
