REMARK  5 active torsions:
REMARK  status: ('A' for Active; 'I' for Inactive)
REMARK    1  A    between atoms: C_9  and  C_10 
REMARK    2  A    between atoms: C_10  and  C_11 
REMARK       I    between atoms: C_11  and  N_13 
REMARK    3  A    between atoms: N_13  and  C_14 
REMARK    4  A    between atoms: C_14  and  C_15 
REMARK    5  A    between atoms: C_15  and  O_16 
ROOT
HETATM    1  C   UNL     1       1.735   2.897  -0.076  1.00  0.00     0.222 C 
HETATM    2  O   UNL     1       1.208   2.939  -1.188  1.00  0.00    -0.273 OA
HETATM    3  N   UNL     1       1.039   3.241   1.072  1.00  0.00    -0.358 N 
HETATM    4  H   UNL     1       1.442   3.075   1.987  1.00  0.00     0.162 HD
ENDROOT
BRANCH   1   5
HETATM    5  C   UNL     1       3.186   2.507   0.114  1.00  0.00     0.145 C 
BRANCH   5   6
HETATM    6  C   UNL     1       3.501   1.042   0.059  1.00  0.00    -0.002 A 
HETATM    7  C   UNL     1       2.646  -0.098  -0.001  1.00  0.00     0.030 A 
HETATM    8  C   UNL     1       1.164  -0.179  -0.066  1.00  0.00     0.070 C 
HETATM    9  N   UNL     1       3.343  -1.240  -0.007  1.00  0.00    -0.303 N 
HETATM   10  N   UNL     1       4.624  -0.860   0.018  1.00  0.00    -0.300 N 
ATOM     11  HN  UNL     1       2.977  -2.192  -0.026  1.00  0.00     0.186 HD
HETATM   12  C   UNL     1       5.653  -1.872   0.006  1.00  0.00     0.177 C 
HETATM   13  C   UNL     1       4.784   0.502   0.053  1.00  0.00     0.033 A 
HETATM   14  C   UNL     1       6.111   1.173   0.065  1.00  0.00     0.070 C 
ENDBRANCH   5   6
ENDBRANCH   1   5
BRANCH   3  15
HETATM   15  C   UNL     1      -0.336   3.703   0.951  1.00  0.00     0.161 C 
BRANCH  15  16
HETATM   16  C   UNL     1      -1.095   3.955   2.273  1.00  0.00     0.083 C 
HETATM   17  C   UNL     1      -2.518   4.441   1.954  1.00  0.00     0.050 C 
HETATM   18  C   UNL     1      -3.135   5.069   3.195  1.00  0.00     0.077 C 
HETATM   19  S   UNL     1      -1.768   5.705   4.193  1.00  0.00    -0.166 SA
HETATM   20  C   UNL     1      -0.449   5.054   3.121  1.00  0.00     0.113 C 
BRANCH  16  21
HETATM   21  O   UNL     1      -1.150   2.736   3.026  1.00  0.00    -0.387 OA
HETATM   22  H   UNL     1      -1.558   2.049   2.470  1.00  0.00     0.210 HD
ENDBRANCH  16  21
ENDBRANCH  15  16
ENDBRANCH   3  15
TORSDOF 5
