REMARK  3 active torsions:
REMARK  status: ('A' for Active; 'I' for Inactive)
REMARK    1  A    between atoms: C_6  and  N_7 
REMARK       I    between atoms: N_7  and  C_8 
REMARK    2  A    between atoms: C_8  and  C_10 
REMARK    3  A    between atoms: C_10  and  N_11 
ROOT
HETATM    1  N   UNL     1       3.061  -3.145  -2.148  1.00  0.00    -0.355 N 
HETATM    2  C   UNL     1       2.335  -3.928  -3.022  1.00  0.00     0.236 C 
HETATM    3  O   UNL     1       1.243  -3.598  -3.482  1.00  0.00    -0.272 OA
HETATM    4  H   UNL     1       3.913  -3.526  -1.742  1.00  0.00     0.162 HD
ENDROOT
BRANCH   2   5
HETATM    5  C   UNL     1       2.950  -5.290  -3.320  1.00  0.00     0.235 C 
BRANCH   5   6
HETATM    6  N   UNL     1       2.438  -6.308  -2.404  1.00  0.00    -0.301 N 
HETATM    7  C   UNL     1       1.309  -7.014  -2.745  1.00  0.00     0.102 A 
HETATM    8  C   UNL     1       0.839  -7.993  -1.973  1.00  0.00     0.092 A 
HETATM    9  C   UNL     1       1.553  -8.346  -0.735  1.00  0.00     0.252 A 
HETATM   10  O   UNL     1       1.163  -9.313  -0.085  1.00  0.00    -0.268 OA
HETATM   11  N   UNL     1       2.634  -7.546  -0.407  1.00  0.00    -0.271 N 
HETATM   12  C   UNL     1       3.373  -7.843   0.803  1.00  0.00     0.164 C 
HETATM   13  C   UNL     1       3.112  -6.507  -1.203  1.00  0.00     0.331 A 
HETATM   14  O   UNL     1       4.078  -5.811  -0.882  1.00  0.00    -0.246 OA
ENDBRANCH   5   6
ENDBRANCH   2   5
BRANCH   1  15
HETATM   15  C   UNL     1       2.612  -1.818  -1.750  1.00  0.00     0.088 C 
HETATM   16  C   UNL     1       3.167  -0.766  -2.724  1.00  0.00     0.025 C 
HETATM   17  C   UNL     1       2.722   0.645  -2.354  1.00  0.00     0.002 C 
HETATM   18  C   UNL     1       3.063   0.984  -0.905  1.00  0.00     0.005 C 
HETATM   19  C   UNL     1       2.528  -0.054   0.096  1.00  0.00    -0.013 C 
HETATM   20  C   UNL     1       1.003   0.063   0.235  1.00  0.00     0.010 C 
HETATM   21  C   UNL     1       3.015  -1.475  -0.297  1.00  0.00     0.008 C 
HETATM   22  C   UNL     1       2.537  -2.537   0.701  1.00  0.00     0.012 C 
ENDBRANCH   1  15
TORSDOF 3
