REMARK  6 active torsions:
REMARK  status: ('A' for Active; 'I' for Inactive)
REMARK    1  A    between atoms: C_2  and  C_3 
REMARK       I    between atoms: C_2  and  N_9 
REMARK    2  A    between atoms: C_3  and  C_4 
REMARK    3  A    between atoms: C_4  and  C_5 
REMARK    4  A    between atoms: C_5  and  C_6 
REMARK    5  A    between atoms: N_9  and  C_10 
REMARK    6  A    between atoms: C_16  and  N_17 
ROOT
HETATM    1  C   UNL     1      -1.571  -2.833  -0.119  1.00  0.00     0.093 C 
HETATM    2  C   UNL     1      -3.079  -2.978  -0.233  1.00  0.00    -0.117 C 
HETATM    3  C   UNL     1      -4.374  -3.103  -0.330  1.00  0.00     0.012 C 
ENDROOT
BRANCH   1   4
HETATM    4  C   UNL     1      -1.128  -1.396  -0.337  1.00  0.00     0.012 C 
BRANCH   4   5
HETATM    5  C   UNL     1       0.391  -1.302  -0.208  1.00  0.00     0.010 C 
BRANCH   5   6
HETATM    6  C   UNL     1       0.881   0.124  -0.397  1.00  0.00     0.103 C 
BRANCH   6   7
HETATM    7  C   UNL     1       2.374   0.208  -0.164  1.00  0.00     0.222 C 
HETATM    8  O   UNL     1       2.842   0.844   0.774  1.00  0.00    -0.273 OA
HETATM    9  N   UNL     1       3.109  -0.431  -1.144  1.00  0.00    -0.324 N 
HETATM   10  H   UNL     1       2.655  -0.580  -2.039  1.00  0.00     0.169 HD
BRANCH   9  11
HETATM   11  C   UNL     1       4.507  -0.262  -1.248  1.00  0.00     0.077 A 
HETATM   12  C   UNL     1       5.352  -0.471  -0.159  1.00  0.00     0.119 A 
HETATM   13  N   UNL     1       6.699  -0.411  -0.235  1.00  0.00    -0.373 N 
HETATM   14  C   UNL     1       7.212  -0.109  -1.444  1.00  0.00     0.090 A 
ATOM     15  HN  UNL     1       7.294  -0.584   0.576  1.00  0.00     0.164 HD
HETATM   16  C   UNL     1       6.449   0.128  -2.584  1.00  0.00     0.048 A 
HETATM   17  C   UNL     1       5.055   0.057  -2.511  1.00  0.00     0.060 A 
BRANCH  17  18
HETATM   18  N   UNL     1       4.223   0.304  -3.609  1.00  0.00    -0.375 N 
HETATM   19  C   UNL     1       4.689   0.064  -4.989  1.00  0.00     0.149 C 
HETATM   20  C   UNL     1       5.000   1.376  -5.726  1.00  0.00     0.187 C 
HETATM   21  O   UNL     1       3.885   2.279  -5.683  1.00  0.00    -0.388 OA
HETATM   22  C   UNL     1       3.599   2.624  -4.325  1.00  0.00     0.187 C 
HETATM   23  C   UNL     1       3.219   1.393  -3.496  1.00  0.00     0.149 C 
ENDBRANCH  17  18
ENDBRANCH   9  11
ENDBRANCH   6   7
ENDBRANCH   5   6
ENDBRANCH   4   5
ENDBRANCH   1   4
TORSDOF 6
