REMARK  4 active torsions:
REMARK  status: ('A' for Active; 'I' for Inactive)
REMARK    1  A    between atoms: N_2  and  C_4 
REMARK    2  A    between atoms: C_7  and  N_8 
REMARK       I    between atoms: N_8  and  C_9 
REMARK       I    between atoms: C_9  and  N_11 
REMARK    3  A    between atoms: N_11  and  C_12 
REMARK    4  A    between atoms: C_12  and  C_13 
ROOT
HETATM    1  N   UNL     1       4.474   3.500  -3.909  1.00  0.00    -0.308 N 
HETATM    2  C   UNL     1       5.216   3.139  -5.015  1.00  0.00     0.320 C 
HETATM    3  O   UNL     1       5.655   2.020  -5.254  1.00  0.00    -0.247 OA
HETATM    4  N   UNL     1       5.464   4.191  -5.874  1.00  0.00    -0.340 N 
HETATM    5  H   UNL     1       4.099   4.436  -3.891  1.00  0.00     0.170 HD
HETATM    6  H   UNL     1       4.728   4.875  -5.978  1.00  0.00     0.164 HD
ENDROOT
BRANCH   1   7
HETATM    7  C   UNL     1       4.154   2.636  -2.833  1.00  0.00     0.051 A 
HETATM    8  C   UNL     1       4.739   1.387  -2.663  1.00  0.00     0.035 A 
HETATM    9  C   UNL     1       4.373   0.577  -1.588  1.00  0.00     0.050 A 
HETATM   10  C   UNL     1       3.413   0.999  -0.673  1.00  0.00     0.102 A 
HETATM   11  N   UNL     1       2.863   2.230  -0.804  1.00  0.00    -0.350 N 
HETATM   12  C   UNL     1       3.236   3.006  -1.861  1.00  0.00     0.119 A 
ATOM     13  HN  UNL     1       2.182   2.570  -0.124  1.00  0.00     0.166 HD
BRANCH  10  14
HETATM   14  N   UNL     1       3.051   0.169   0.400  1.00  0.00    -0.376 N 
HETATM   15  C   UNL     1       2.029   0.720   1.280  1.00  0.00     0.150 C 
HETATM   16  C   UNL     1       2.961  -1.260   0.115  1.00  0.00     0.150 C 
ENDBRANCH  10  14
ENDBRANCH   1   7
BRANCH   4  17
HETATM   17  C   UNL     1       6.182   3.860  -7.097  1.00  0.00     0.156 C 
BRANCH  17  18
HETATM   18  C   UNL     1       6.512   5.049  -7.987  1.00  0.00     0.139 C 
HETATM   19  C   UNL     1       7.399   6.114  -7.364  1.00  0.00     0.035 C 
HETATM   20  C   UNL     1       6.897   7.413  -7.966  1.00  0.00     0.029 C 
HETATM   21  C   UNL     1       5.757   7.004  -8.876  1.00  0.00     0.168 C 
HETATM   22  O   UNL     1       5.315   5.734  -8.388  1.00  0.00    -0.384 OA
ENDBRANCH  17  18
ENDBRANCH   4  17
TORSDOF 4
