REMARK  6 active torsions:
REMARK  status: ('A' for Active; 'I' for Inactive)
REMARK    1  A    between atoms: O_2  and  C_3 
REMARK    2  A    between atoms: C_3  and  C_4 
REMARK    3  A    between atoms: C_4  and  N_5 
REMARK    4  A    between atoms: C_6  and  C_15 
REMARK    5  A    between atoms: C_15  and  N_17 
REMARK       I    between atoms: N_17  and  C_18 
REMARK    6  A    between atoms: C_18  and  C_20 
ROOT
HETATM    1  N   UNL     1       4.802  -1.980   1.760  1.00  0.00    -0.331 N 
HETATM    2  C   UNL     1       5.485  -1.749   2.945  1.00  0.00     0.107 A 
HETATM    3  N   UNL     1       5.697  -2.890   3.577  1.00  0.00    -0.342 N 
ATOM      4  HN  UNL     1       6.202  -3.016   4.454  1.00  0.00     0.167 HD
HETATM    5  C   UNL     1       5.108  -3.867   2.827  1.00  0.00     0.060 A 
HETATM    6  C   UNL     1       4.977  -5.237   3.100  1.00  0.00     0.032 A 
HETATM    7  C   UNL     1       4.345  -6.057   2.159  1.00  0.00     0.002 A 
HETATM    8  C   UNL     1       3.862  -5.522   0.966  1.00  0.00     0.002 A 
HETATM    9  C   UNL     1       3.966  -4.152   0.687  1.00  0.00     0.032 A 
HETATM   10  C   UNL     1       4.585  -3.341   1.652  1.00  0.00     0.062 A 
ENDROOT
BRANCH   2  11
HETATM   11  C   UNL     1       5.924  -0.405   3.480  1.00  0.00     0.148 C 
HETATM   12  C   UNL     1       5.867  -0.410   5.012  1.00  0.00     0.040 C 
BRANCH  11  13
HETATM   13  N   UNL     1       7.276  -0.153   3.008  1.00  0.00    -0.344 N 
HETATM   14  C   UNL     1       7.915   1.053   3.209  1.00  0.00     0.276 C 
HETATM   15  O   UNL     1       7.352   2.018   3.715  1.00  0.00    -0.265 OA
HETATM   16  H   UNL     1       7.857  -0.945   2.756  1.00  0.00     0.163 HD
BRANCH  14  17
HETATM   17  C   UNL     1       9.298   1.083   2.776  1.00  0.00     0.142 A 
HETATM   18  C   UNL     1      10.281   2.046   2.932  1.00  0.00     0.045 A 
HETATM   19  C   UNL     1      11.432   1.573   2.256  1.00  0.00     0.027 A 
HETATM   20  C   UNL     1      11.088   0.348   1.736  1.00  0.00     0.143 A 
HETATM   21  O   UNL     1       9.804   0.032   2.051  1.00  0.00    -0.317 OA
ENDBRANCH  14  17
ENDBRANCH  11  13
ENDBRANCH   2  11
BRANCH   1  22
HETATM   22  C   UNL     1       4.267  -0.995   0.841  1.00  0.00     0.156 C 
BRANCH  22  23
HETATM   23  C   UNL     1       5.319  -0.186   0.097  1.00  0.00     0.187 C 
BRANCH  23  24
HETATM   24  O   UNL     1       4.664   0.607  -0.898  1.00  0.00    -0.394 OA
HETATM   25  C   UNL     1       5.580   1.473  -1.556  1.00  0.00     0.201 C 
ENDBRANCH  23  24
ENDBRANCH  22  23
ENDBRANCH   1  22
TORSDOF 6
