REMARK  7 active torsions:
REMARK  status: ('A' for Active; 'I' for Inactive)
REMARK    1  A    between atoms: CG_2  and  CB_4 
REMARK    2  A    between atoms: CB_4  and  CA_5 
REMARK    3  A    between atoms: CA_5  and  C_7 
REMARK    4  A    between atoms: CA_5  and  N_6 
REMARK       I    between atoms: N_6  and  C_12 
REMARK    5  A    between atoms: C_7  and  OXT_9 
REMARK    6  A    between atoms: C_12  and  C_14 
REMARK    7  A    between atoms: C_14  and  N_16 
ROOT
ATOM      1  N   LEU A   1       2.870   0.872   1.051  1.00  0.00    -0.345 N 
ATOM      2  H   LEU A   1       2.510   1.710   1.508  1.00  0.00     0.163 HD
HETATM    3  C   UNK A   0       1.953  -0.010   0.507  1.00  0.00     0.242 C 
HETATM    4  O   UNK A   0       2.269  -1.157   0.198  1.00  0.00    -0.271 OA
ENDROOT
BRANCH   3   5
HETATM    5  C   UNK A   0       0.562   0.572   0.268  1.00  0.00     0.195 C 
HETATM    6  C   UNK A   0      -0.397  -0.396  -0.421  1.00  0.00     0.044 C 
BRANCH   5   7
HETATM    7  N   UNK A   0      -0.023   1.110   1.499  1.00  0.00    -0.283 N 
HETATM    8  N   UNK A   0      -0.490   2.378   1.466  1.00  0.00    -0.302 N 
HETATM    9  C   UNK A   0      -0.950   2.596   2.701  1.00  0.00     0.024 A 
ATOM     10  HN  UNK A   0      -0.491   3.023   0.676  1.00  0.00     0.186 HD
HETATM   11  C   UNK A   0      -1.574   3.891   3.068  1.00  0.00     0.070 C 
HETATM   12  C   UNK A   0      -0.752   1.474   3.531  1.00  0.00     0.052 A 
HETATM   13  C   UNK A   0      -0.159   0.521   2.731  1.00  0.00     0.027 A 
HETATM   14  C   UNK A   0       0.265  -0.860   3.074  1.00  0.00     0.070 C 
ENDBRANCH   5   7
ENDBRANCH   3   5
BRANCH   1  15
ATOM     15  CA  LEU A   1       4.233   0.476   1.417  1.00  0.00     0.182 C 
BRANCH  15  16
ATOM     16  CB  LEU A   1       5.234   1.442   0.771  1.00  0.00     0.040 C 
BRANCH  16  17
ATOM     17  CG  LEU A   1       6.722   1.178   1.082  1.00  0.00    -0.020 C 
ATOM     18  CD1 LEU A   1       7.171  -0.223   0.666  1.00  0.00     0.009 C 
ATOM     19  CD2 LEU A   1       7.590   2.230   0.383  1.00  0.00     0.009 C 
ENDBRANCH  16  17
ENDBRANCH  15  16
BRANCH  15  20
ATOM     20  C   LEU A   1       4.314   0.535   2.947  1.00  0.00     0.163 C 
ATOM     21  O   LEU A   1       3.997   1.517   3.603  1.00  0.00    -0.648 OA
BRANCH  20  22
ATOM     22  OXT LEU A   1       4.746  -0.606   3.529  1.00  0.00    -0.775 OA
ATOM     23  HXT LEU A   1       4.893  -1.347   2.911  1.00  0.00     0.167 HD
ENDBRANCH  20  22
ENDBRANCH  15  20
ENDBRANCH   1  15
TORSDOF 7
