REMARK  6 active torsions:
REMARK  status: ('A' for Active; 'I' for Inactive)
REMARK    1  A    between atoms: C_2  and  C_3 
REMARK    2  A    between atoms: C_3  and  C_4 
REMARK    3  A    between atoms: C_4  and  C_5 
REMARK       I    between atoms: C_5  and  N_7 
REMARK    4  A    between atoms: N_7  and  C_8 
REMARK    5  A    between atoms: C_8  and  C_9 
REMARK    6  A    between atoms: C_12  and  N_16 
ROOT
HETATM    1  C   UNL     1       8.551   2.926  -3.491  1.00  0.00    -0.025 A 
HETATM    2  C   UNL     1       9.246   4.117  -3.666  1.00  0.00     0.014 A 
HETATM    3  C   UNL     1      10.640   4.096  -3.785  1.00  0.00     0.049 A 
HETATM    4  C   UNL     1      11.348   2.894  -3.724  1.00  0.00     0.103 A 
HETATM    5  N   UNL     1      10.675   1.744  -3.511  1.00  0.00    -0.352 N 
ATOM      6  HN  UNL     1      11.178   0.860  -3.430  1.00  0.00     0.166 HD
HETATM    7  C   UNL     1       9.319   1.775  -3.405  1.00  0.00     0.098 A 
ENDROOT
BRANCH   1   8
HETATM    8  C   UNL     1       7.055   2.882  -3.452  1.00  0.00     0.162 C 
BRANCH   8   9
HETATM    9  N   UNL     1       6.492   3.089  -2.134  1.00  0.00    -0.357 N 
HETATM   10  C   UNL     1       5.124   3.008  -1.970  1.00  0.00     0.217 C 
HETATM   11  O   UNL     1       4.363   2.782  -2.906  1.00  0.00    -0.274 OA
HETATM   12  H   UNL     1       7.083   3.406  -1.375  1.00  0.00     0.162 HD
BRANCH  10  13
HETATM   13  C   UNL     1       4.636   3.254  -0.553  1.00  0.00     0.103 C 
BRANCH  13  14
HETATM   14  C   UNL     1       3.279   2.582  -0.320  1.00  0.00     0.009 C 
BRANCH  14  15
HETATM   15  C   UNL     1       2.766   2.779   1.106  1.00  0.00    -0.004 C 
HETATM   16  C   UNL     1       1.439   2.065   1.320  1.00  0.00     0.005 C 
ENDBRANCH  14  15
ENDBRANCH  13  14
ENDBRANCH  10  13
ENDBRANCH   8   9
ENDBRANCH   1   8
BRANCH   4  17
HETATM   17  N   UNL     1      12.726   2.865  -3.811  1.00  0.00    -0.363 N 
HETATM   18  C   UNL     1      13.482   3.773  -4.686  1.00  0.00     0.150 C 
HETATM   19  C   UNL     1      14.109   3.011  -5.867  1.00  0.00     0.187 C 
HETATM   20  O   UNL     1      14.895   1.895  -5.423  1.00  0.00    -0.388 OA
HETATM   21  C   UNL     1      14.066   0.971  -4.696  1.00  0.00     0.187 C 
HETATM   22  C   UNL     1      13.447   1.632  -3.456  1.00  0.00     0.150 C 
ENDBRANCH   4  17
TORSDOF 6
