REMARK  7 active torsions:
REMARK  status: ('A' for Active; 'I' for Inactive)
REMARK    1  A    between atoms: C_2  and  N_3 
REMARK    2  A    between atoms: N_3  and  C_4 
REMARK    3  A    between atoms: N_3  and  S_6 
REMARK    4  A    between atoms: S_6  and  N_9 
REMARK    5  A    between atoms: N_9  and  C_10 
REMARK    6  A    between atoms: C_10  and  C_11 
REMARK    7  A    between atoms: C_14  and  N_18 
ROOT
HETATM    1  C   UNL     1       7.167   3.107  -3.446  1.00  0.00    -0.029 A 
HETATM    2  C   UNL     1       6.222   3.863  -4.133  1.00  0.00     0.013 A 
HETATM    3  C   UNL     1       6.624   4.714  -5.159  1.00  0.00     0.049 A 
HETATM    4  C   UNL     1       7.967   4.811  -5.520  1.00  0.00     0.103 A 
HETATM    5  N   UNL     1       8.900   4.123  -4.831  1.00  0.00    -0.352 N 
ATOM      6  HN  UNL     1       9.890   4.218  -5.057  1.00  0.00     0.166 HD
HETATM    7  C   UNL     1       8.491   3.299  -3.827  1.00  0.00     0.098 A 
ENDROOT
BRANCH   1   8
HETATM    8  C   UNL     1       6.811   2.128  -2.348  1.00  0.00     0.145 C 
BRANCH   8   9
HETATM    9  N   UNL     1       5.355   2.024  -2.140  1.00  0.00    -0.202 NA
HETATM   10  H   UNL     1       4.969   2.923  -1.851  1.00  0.00     0.141 HD
BRANCH   9  11
HETATM   11  S   UNL     1       4.803   0.911  -1.036  1.00  0.00     0.281 S 
HETATM   12  O   UNL     1       3.375   1.102  -0.950  1.00  0.00    -0.194 OA
HETATM   13  O   UNL     1       5.634   1.016   0.138  1.00  0.00    -0.194 OA
BRANCH  11  14
HETATM   14  N   UNL     1       5.107  -0.579  -1.778  1.00  0.00    -0.198 NA
BRANCH  14  15
HETATM   15  C   UNL     1       4.659  -1.704  -0.890  1.00  0.00     0.104 C 
HETATM   16  C   UNL     1       5.074  -3.080  -1.380  1.00  0.00     0.021 C 
ENDBRANCH  14  15
BRANCH  14  17
HETATM   17  C   UNL     1       4.740  -0.732  -3.215  1.00  0.00     0.104 C 
HETATM   18  C   UNL     1       3.258  -0.606  -3.513  1.00  0.00     0.021 C 
ENDBRANCH  14  17
ENDBRANCH  11  14
ENDBRANCH   9  11
ENDBRANCH   8   9
ENDBRANCH   1   8
BRANCH   4  19
HETATM   19  N   UNL     1       8.335   5.650  -6.557  1.00  0.00    -0.363 N 
HETATM   20  C   UNL     1       7.566   5.638  -7.811  1.00  0.00     0.150 C 
HETATM   21  C   UNL     1       8.377   5.020  -8.960  1.00  0.00     0.187 C 
HETATM   22  O   UNL     1       9.658   5.649  -9.102  1.00  0.00    -0.388 OA
HETATM   23  C   UNL     1      10.423   5.464  -7.898  1.00  0.00     0.187 C 
HETATM   24  C   UNL     1       9.729   6.095  -6.683  1.00  0.00     0.150 C 
ENDBRANCH   4  19
TORSDOF 7
