REMARK  6 active torsions:
REMARK  status: ('A' for Active; 'I' for Inactive)
REMARK    1  A    between atoms: C_2  and  S_5 
REMARK    2  A    between atoms: S_5  and  C_6 
REMARK    3  A    between atoms: C_6  and  C_7 
REMARK    4  A    between atoms: C_7  and  N_8 
REMARK       I    between atoms: N_8  and  C_9 
REMARK    5  A    between atoms: C_9  and  C_11 
REMARK    6  A    between atoms: C_11  and  N_12 
ROOT
HETATM    1  N   UNL     1       6.711   1.029  -3.006  1.00  0.00    -0.359 N 
HETATM    2  C   UNL     1       7.333   1.366  -4.189  1.00  0.00     0.235 C 
HETATM    3  O   UNL     1       6.718   1.752  -5.181  1.00  0.00    -0.272 OA
HETATM    4  H   UNL     1       7.275   0.723  -2.217  1.00  0.00     0.162 HD
ENDROOT
BRANCH   2   5
HETATM    5  C   UNL     1       8.857   1.294  -4.158  1.00  0.00     0.235 C 
BRANCH   5   6
HETATM    6  N   UNL     1       9.448   2.578  -3.790  1.00  0.00    -0.301 N 
HETATM    7  C   UNL     1       9.668   3.534  -4.761  1.00  0.00     0.102 A 
HETATM    8  C   UNL     1      10.274   4.692  -4.486  1.00  0.00     0.092 A 
HETATM    9  C   UNL     1      10.726   4.943  -3.108  1.00  0.00     0.250 A 
HETATM   10  O   UNL     1      11.373   5.945  -2.827  1.00  0.00    -0.268 OA
HETATM   11  N   UNL     1      10.379   3.997  -2.187  1.00  0.00    -0.275 N 
HETATM   12  C   UNL     1       9.765   2.800  -2.458  1.00  0.00     0.329 A 
HETATM   13  H   UNL     1      10.672   4.155  -1.237  1.00  0.00     0.173 HD
HETATM   14  O   UNL     1       9.536   1.993  -1.559  1.00  0.00    -0.246 OA
ENDBRANCH   5   6
ENDBRANCH   2   5
BRANCH   1  15
HETATM   15  C   UNL     1       5.266   1.032  -2.862  1.00  0.00     0.133 C 
BRANCH  15  16
HETATM   16  C   UNL     1       4.617  -0.304  -3.237  1.00  0.00     0.102 C 
BRANCH  16  17
HETATM   17  S   UNL     1       5.153  -1.631  -2.107  1.00  0.00    -0.054 SA
BRANCH  17  18
HETATM   18  C   UNL     1       4.188  -2.979  -2.786  1.00  0.00     0.443 C 
HETATM   19  F   UNL     1       3.423  -2.599  -3.835  1.00  0.00    -0.160 F 
HETATM   20  F   UNL     1       3.357  -3.496  -1.851  1.00  0.00    -0.160 F 
HETATM   21  F   UNL     1       4.990  -3.980  -3.214  1.00  0.00    -0.160 F 
ENDBRANCH  17  18
ENDBRANCH  16  17
ENDBRANCH  15  16
ENDBRANCH   1  15
TORSDOF 6
