REMARK  5 active torsions:
REMARK  status: ('A' for Active; 'I' for Inactive)
REMARK    1  A    between atoms: C_1  and  C_2 
REMARK    2  A    between atoms: C_1  and  N_9 
REMARK    3  A    between atoms: C_2  and  N_3 
REMARK    4  A    between atoms: N_9  and  C_10 
REMARK    5  A    between atoms: C_10  and  C_11 
ROOT
HETATM    1  N   UNL     1       2.417   0.086   0.369  1.00  0.00     0.085 N 
HETATM    2  H   UNL     1       2.674  -0.644  -0.296  1.00  0.00     0.315 HD
ENDROOT
BRANCH   1   3
HETATM    3  C   UNL     1       0.947   0.149   0.447  1.00  0.00     0.291 C 
BRANCH   3   4
HETATM    4  C   UNL     1       0.371  -1.187   0.918  1.00  0.00     0.178 C 
BRANCH   4   5
HETATM    5  N   UNL     1      -1.076  -1.142   1.017  1.00  0.00    -0.302 N 
HETATM    6  C   UNL     1      -1.810  -0.830   2.125  1.00  0.00     0.111 A 
HETATM    7  C   UNL     1      -3.128  -0.950   1.752  1.00  0.00     0.037 A 
HETATM    8  C   UNL     1      -3.083  -1.337   0.401  1.00  0.00     0.108 A 
HETATM    9  N   UNL     1      -1.833  -1.447  -0.054  1.00  0.00    -0.310 N 
ATOM     10  HN  UNL     1      -1.524  -1.702  -0.992  1.00  0.00     0.186 HD
ENDBRANCH   4   5
ENDBRANCH   3   4
ENDBRANCH   1   3
BRANCH   1  11
HETATM   11  C   UNL     1       2.967   1.365  -0.094  1.00  0.00     0.274 C 
BRANCH  11  12
HETATM   12  C   UNL     1       4.511   1.342  -0.190  1.00  0.00     0.014 C 
HETATM   13  C   UNL     1       5.045   2.712  -0.651  1.00  0.00     0.006 C 
HETATM   14  C   UNL     1       4.758   2.999  -2.127  1.00  0.00     0.000 C 
HETATM   15  C   UNL     1       5.236   1.872  -3.039  1.00  0.00     0.000 C 
HETATM   16  C   UNL     1       4.735   0.503  -2.585  1.00  0.00     0.000 C 
HETATM   17  C   UNL     1       5.071   0.248  -1.119  1.00  0.00     0.006 C 
ENDBRANCH  11  12
ENDBRANCH   1  11
TORSDOF 5
