REMARK  4 active torsions:
REMARK  status: ('A' for Active; 'I' for Inactive)
REMARK    1  A    between atoms: C_2  and  N_3 
REMARK    2  A    between atoms: C_8  and  N_9 
REMARK       I    between atoms: N_9  and  C_10 
REMARK       I    between atoms: C_10  and  N_12 
REMARK    3  A    between atoms: N_12  and  C_13 
REMARK    4  A    between atoms: C_19  and  C_20 
ROOT
HETATM    1  N   UNL     1       2.827  -3.814   3.885  1.00  0.00    -0.304 N 
HETATM    2  C   UNL     1       2.125  -4.744   3.156  1.00  0.00     0.321 C 
HETATM    3  O   UNL     1       0.933  -4.651   2.874  1.00  0.00    -0.247 OA
HETATM    4  N   UNL     1       2.890  -5.803   2.730  1.00  0.00    -0.338 N 
HETATM    5  H   UNL     1       3.667  -4.111   4.365  1.00  0.00     0.171 HD
HETATM    6  H   UNL     1       3.823  -5.917   3.096  1.00  0.00     0.164 HD
ENDROOT
BRANCH   1   7
HETATM    7  C   UNL     1       2.331  -2.587   4.291  1.00  0.00     0.102 A 
HETATM    8  C   UNL     1       3.020  -1.896   5.432  1.00  0.00     0.201 A 
HETATM    9  C   UNL     1       2.446  -0.612   5.916  1.00  0.00     0.074 A 
HETATM   10  O   UNL     1       4.017  -2.383   5.962  1.00  0.00    -0.286 OA
HETATM   11  C   UNL     1       1.388  -0.107   5.268  1.00  0.00     0.094 A 
HETATM   12  N   UNL     1       0.785  -0.712   4.177  1.00  0.00    -0.364 N 
HETATM   13  C   UNL     1       1.289  -1.937   3.749  1.00  0.00     0.124 A 
BRANCH  12  14
HETATM   14  C   UNL     1      -0.332  -0.078   3.456  1.00  0.00     0.123 C 
HETATM   15  C   UNL     1       0.191   0.780   2.314  1.00  0.00     0.027 C 
ENDBRANCH  12  14
ENDBRANCH   1   7
BRANCH   4  16
HETATM   16  C   UNL     1       2.266  -6.901   1.987  1.00  0.00     0.090 C 
HETATM   17  C   UNL     1       1.746  -7.984   2.948  1.00  0.00     0.029 C 
HETATM   18  C   UNL     1       2.856  -8.872   3.524  1.00  0.00    -0.017 C 
HETATM   19  C   UNL     1       2.255  -9.998   4.367  1.00  0.00     0.010 C 
HETATM   20  C   UNL     1       3.716  -9.453   2.400  1.00  0.00     0.005 C 
HETATM   21  C   UNL     1       4.287  -8.363   1.497  1.00  0.00     0.007 C 
HETATM   22  C   UNL     1       3.176  -7.492   0.878  1.00  0.00     0.012 C 
BRANCH  22  23
HETATM   23  C   UNL     1       3.743  -6.423  -0.109  1.00  0.00    -0.017 C 
HETATM   24  C   UNL     1       4.504  -7.068  -1.277  1.00  0.00     0.010 C 
HETATM   25  C   UNL     1       2.648  -5.527  -0.708  1.00  0.00     0.010 C 
ENDBRANCH  22  23
ENDBRANCH   4  16
TORSDOF 4
