REMARK  2 active torsions:
REMARK  status: ('A' for Active; 'I' for Inactive)
REMARK    1  A    between atoms: C_4  and  N_5 
REMARK       I    between atoms: N_5  and  C_6 
REMARK       I    between atoms: C_6  and  N_8 
REMARK    2  A    between atoms: N_8  and  C_9 
ROOT
HETATM    1  N   UNL     1       5.664   1.625  -0.156  1.00  0.00    -0.293 N 
HETATM    2  C   UNL     1       5.588   3.031  -0.360  1.00  0.00     0.322 C 
HETATM    3  O   UNL     1       4.543   3.617  -0.570  1.00  0.00    -0.247 OA
HETATM    4  N   UNL     1       6.837   3.572  -0.308  1.00  0.00    -0.330 N 
HETATM    5  H   UNL     1       6.576   1.207  -0.073  1.00  0.00     0.172 HD
HETATM    6  H   UNL     1       7.514   3.075   0.251  1.00  0.00     0.165 HD
ENDROOT
BRANCH   1   7
HETATM    7  C   UNL     1       4.552   0.785  -0.119  1.00  0.00     0.127 A 
HETATM    8  C   UNL     1       3.221   1.139  -0.181  1.00  0.00     0.076 A 
HETATM    9  C   UNL     1       2.497  -0.072  -0.142  1.00  0.00     0.025 A 
HETATM   10  C   UNL     1       1.027  -0.253  -0.202  1.00  0.00     0.070 C 
HETATM   11  N   UNL     1       3.311  -1.126  -0.037  1.00  0.00    -0.302 N 
HETATM   12  N   UNL     1       4.546  -0.589  -0.010  1.00  0.00    -0.281 N 
ATOM     13  HN  UNL     1       3.056  -2.112   0.012  1.00  0.00     0.186 HD
HETATM   14  C   UNL     1       5.662  -1.492   0.105  1.00  0.00     0.179 C 
ENDBRANCH   1   7
BRANCH   4  15
HETATM   15  C   UNL     1       7.031   5.022  -0.317  1.00  0.00     0.178 C 
HETATM   16  C   UNL     1       6.461   5.767  -1.524  1.00  0.00     0.036 C 
HETATM   17  C   UNL     1       6.789   7.255  -1.395  1.00  0.00     0.022 C 
HETATM   18  C   UNL     1       6.192   7.814  -0.111  1.00  0.00     0.122 C 
HETATM   19  N   UNL     1       6.486   7.004   1.056  1.00  0.00    -0.359 N 
HETATM   20  C   UNL     1       6.572   5.637   1.016  1.00  0.00     0.240 C 
HETATM   21  H   UNL     1       6.184   7.359   1.958  1.00  0.00     0.162 HD
HETATM   22  O   UNL     1       6.420   4.961   2.032  1.00  0.00    -0.271 OA
ENDBRANCH   4  15
TORSDOF 2
