REMARK  2 active torsions:
REMARK  status: ('A' for Active; 'I' for Inactive)
REMARK       I    between atoms: N_6  and  C_7 
REMARK    1  A    between atoms: C_7  and  C_9 
REMARK    2  A    between atoms: N_12  and  C_15 
ROOT
HETATM    1  C   UNL     3       4.570   0.893   0.885  1.00  0.00     0.117 A 
HETATM    2  C   UNL     3       5.237   2.021   0.446  1.00  0.00     0.055 A 
HETATM    3  C   UNL     3       6.568   1.752   0.652  1.00  0.00     0.113 A 
HETATM    4  N   UNL     3       6.669   0.526   1.207  1.00  0.00    -0.296 N 
HETATM    5  N   UNL     3       5.465  -0.013   1.333  1.00  0.00    -0.293 N 
ATOM      6  HN  UNL     3       5.254  -0.941   1.700  1.00  0.00     0.187 HD
ENDROOT
BRANCH   4   7
HETATM    7  C   UNL     3       7.925  -0.074   1.679  1.00  0.00     0.135 C 
HETATM    8  C   UNL     3       8.927  -0.307   0.533  1.00  0.00     0.031 C 
HETATM    9  C   UNL     3       8.432  -1.424  -0.392  1.00  0.00     0.032 C 
HETATM   10  C   UNL     3       8.177  -2.697   0.426  1.00  0.00     0.270 C 
HETATM   11  N   UNL     3       7.190  -2.433   1.484  1.00  0.00     0.085 N 
HETATM   12  C   UNL     3       7.685  -1.409   2.415  1.00  0.00     0.296 C 
HETATM   13  H   UNL     3       7.030  -3.319   2.017  1.00  0.00     0.315 HD
ENDBRANCH   4   7
BRANCH   1  14
HETATM   14  C   UNL     3       3.105   0.741   0.909  1.00  0.00     0.269 C 
HETATM   15  N   UNL     3       2.506  -0.478   0.981  1.00  0.00    -0.360 N 
HETATM   16  C   UNL     3       1.063  -0.610   0.981  1.00  0.00     0.149 C 
HETATM   17  H   UNL     3       3.082  -1.332   0.990  1.00  0.00     0.162 HD
HETATM   18  O   UNL     3       2.424   1.751   0.851  1.00  0.00    -0.266 OA
ENDBRANCH   1  14
TORSDOF 2
