REMARK  3 active torsions:
REMARK  status: ('A' for Active; 'I' for Inactive)
REMARK    1  A    between atoms: O_2  and  C_3 
REMARK    2  A    between atoms: C_4  and  N_5 
REMARK       I    between atoms: N_5  and  C_6 
REMARK       I    between atoms: C_6  and  N_8 
REMARK    3  A    between atoms: N_8  and  C_9 
ROOT
HETATM    1  N   UNL     1       2.033  -2.994   0.042  1.00  0.00    -0.303 N 
HETATM    2  C   UNL     1       1.759  -2.400   1.253  1.00  0.00     0.321 C 
HETATM    3  O   UNL     1       2.386  -1.470   1.749  1.00  0.00    -0.247 OA
HETATM    4  N   UNL     1       0.669  -2.973   1.864  1.00  0.00    -0.338 N 
HETATM    5  H   UNL     1       1.842  -3.981  -0.031  1.00  0.00     0.171 HD
HETATM    6  H   UNL     1       0.267  -3.800   1.452  1.00  0.00     0.164 HD
ENDROOT
BRANCH   1   7
HETATM    7  C   UNL     1       3.023  -2.499  -0.791  1.00  0.00     0.113 A 
HETATM    8  C   UNL     1       3.950  -3.268  -1.473  1.00  0.00     0.188 A 
HETATM    9  N   UNL     1       4.661  -2.373  -2.235  1.00  0.00    -0.273 N 
HETATM   10  N   UNL     1       4.278  -1.090  -2.083  1.00  0.00    -0.299 N 
HETATM   11  C   UNL     1       5.748  -2.673  -3.135  1.00  0.00     0.180 C 
HETATM   12  C   UNL     1       3.271  -1.158  -1.201  1.00  0.00     0.053 A 
ATOM     13  HN  UNL     1       4.664  -0.261  -2.534  1.00  0.00     0.187 HD
HETATM   14  C   UNL     1       2.513   0.078  -0.879  1.00  0.00     0.072 C 
BRANCH   8  15
HETATM   15  O   UNL     1       4.237  -4.576  -1.506  1.00  0.00    -0.338 OA
HETATM   16  C   UNL     1       4.336  -5.223  -0.237  1.00  0.00     0.211 C 
ENDBRANCH   8  15
ENDBRANCH   1   7
BRANCH   4  17
HETATM   17  C   UNL     1       0.221  -2.542   3.174  1.00  0.00     0.093 C 
HETATM   18  C   UNL     1       0.772  -3.430   4.298  1.00  0.00     0.026 C 
HETATM   19  C   UNL     1      -0.358  -3.581   5.313  1.00  0.00     0.003 C 
HETATM   20  C   UNL     1      -1.442  -2.599   4.881  1.00  0.00     0.011 C 
HETATM   21  C   UNL     1      -1.314  -2.523   3.351  1.00  0.00    -0.027 C 
HETATM   22  C   UNL     1      -1.906  -1.216   2.811  1.00  0.00     0.017 C 
HETATM   23  C   UNL     1      -2.039  -3.710   2.690  1.00  0.00     0.017 C 
ENDBRANCH   4  17
TORSDOF 3
