REMARK  3 active torsions:
REMARK  status: ('A' for Active; 'I' for Inactive)
REMARK    1  A    between atoms: S_2  and  C_5 
REMARK    2  A    between atoms: C_8  and  N_9 
REMARK       I    between atoms: N_9  and  C_10 
REMARK       I    between atoms: C_10  and  N_12 
REMARK    3  A    between atoms: N_12  and  C_13 
ROOT
HETATM    1  N   UNL     1       3.595  -5.152  -2.691  1.00  0.00    -0.308 N 
HETATM    2  C   UNL     1       3.177  -6.357  -2.176  1.00  0.00     0.321 C 
HETATM    3  O   UNL     1       2.513  -6.508  -1.156  1.00  0.00    -0.247 OA
HETATM    4  N   UNL     1       3.612  -7.426  -2.923  1.00  0.00    -0.336 N 
HETATM    5  H   UNL     1       3.971  -5.160  -3.626  1.00  0.00     0.170 HD
HETATM    6  H   UNL     1       3.828  -7.273  -3.895  1.00  0.00     0.164 HD
ENDROOT
BRANCH   1   7
HETATM    7  C   UNL     1       3.457  -3.904  -2.052  1.00  0.00     0.051 A 
HETATM    8  C   UNL     1       3.139  -3.761  -0.699  1.00  0.00     0.034 A 
HETATM    9  C   UNL     1       3.055  -2.495  -0.125  1.00  0.00     0.044 A 
HETATM   10  C   UNL     1       3.294  -1.411  -0.947  1.00  0.00     0.128 A 
HETATM   11  N   UNL     1       3.601  -1.481  -2.269  1.00  0.00    -0.355 N 
HETATM   12  C   UNL     1       3.673  -2.730  -2.783  1.00  0.00     0.118 A 
ATOM     13  HN  UNL     1       3.766  -0.649  -2.835  1.00  0.00     0.166 HD
BRANCH  10  14
HETATM   14  S   UNL     1       3.279   0.225  -0.255  1.00  0.00     0.187 S 
HETATM   15  C   UNL     1       3.583   1.304  -1.624  1.00  0.00     0.168 C 
HETATM   16  O   UNL     1       4.414   0.315   0.646  1.00  0.00    -0.222 OA
HETATM   17  O   UNL     1       1.929   0.478   0.220  1.00  0.00    -0.222 OA
ENDBRANCH  10  14
ENDBRANCH   1   7
BRANCH   4  18
HETATM   18  C   UNL     1       3.245  -8.775  -2.515  1.00  0.00     0.121 C 
HETATM   19  C   UNL     1       1.878  -9.204  -3.069  1.00  0.00     0.057 C 
HETATM   20  C   UNL     1       2.092 -10.604  -3.652  1.00  0.00     0.275 C 
HETATM   21  N   UNL     1       3.357 -11.034  -3.071  1.00  0.00     0.095 N 
HETATM   22  C   UNL     1       4.022 -12.136  -3.756  1.00  0.00     0.273 C 
HETATM   23  C   UNL     1       4.201  -9.836  -3.048  1.00  0.00     0.245 C 
HETATM   24  C   UNL     1       5.325 -12.481  -3.019  1.00  0.00     0.030 C 
HETATM   25  C   UNL     1       6.221 -11.255  -2.796  1.00  0.00     0.004 C 
HETATM   26  C   UNL     1       5.429 -10.098  -2.185  1.00  0.00     0.038 C 
ENDBRANCH   4  18
TORSDOF 3
