REMARK  4 active torsions:
REMARK  status: ('A' for Active; 'I' for Inactive)
REMARK    1  A    between atoms: C_7  and  C_8 
REMARK    2  A    between atoms: C_8  and  C_9 
REMARK    3  A    between atoms: C_9  and  N_10 
REMARK       I    between atoms: N_10  and  C_11 
REMARK    4  A    between atoms: C_11  and  C_13 
ROOT
HETATM    1  N   UNL     1       0.602  -3.916   0.216  1.00  0.00    -0.360 N 
HETATM    2  C   UNL     1      -0.770  -4.072   0.184  1.00  0.00     0.222 C 
HETATM    3  O   UNL     1      -1.523  -3.099   0.135  1.00  0.00    -0.273 OA
HETATM    4  H   UNL     1       1.201  -4.694  -0.054  1.00  0.00     0.162 HD
ENDROOT
BRANCH   1   5
HETATM    5  C   UNL     1       1.195  -2.593   0.072  1.00  0.00     0.130 C 
BRANCH   5   6
HETATM    6  C   UNL     1       2.581  -2.438   0.708  1.00  0.00     0.096 C 
BRANCH   6   7
HETATM    7  C   UNL     1       3.632  -3.274   0.047  1.00  0.00     0.084 A 
HETATM    8  N   UNL     1       4.957  -2.908  -0.075  1.00  0.00    -0.350 N 
HETATM    9  C   UNL     1       5.573  -1.681   0.372  1.00  0.00     0.156 C 
HETATM   10  C   UNL     1       5.620  -3.933  -0.692  1.00  0.00     0.108 A 
HETATM   11  C   UNL     1       4.666  -4.894  -0.916  1.00  0.00     0.106 A 
HETATM   12  N   UNL     1       3.443  -4.480  -0.458  1.00  0.00    -0.354 N 
ATOM     13  HN  UNL     1       2.565  -4.998  -0.499  1.00  0.00     0.166 HD
ENDBRANCH   6   7
ENDBRANCH   5   6
ENDBRANCH   1   5
BRANCH   2  14
HETATM   14  C   UNL     1      -1.300  -5.515   0.172  1.00  0.00     0.081 C 
HETATM   15  C   UNL     1      -2.837  -5.489   0.332  1.00  0.00     0.018 C 
HETATM   16  C   UNL     1      -3.500  -6.842   0.595  1.00  0.00     0.027 C 
HETATM   17  C   UNL     1      -2.654  -7.815   1.354  1.00  0.00    -0.031 C 
HETATM   18  C   UNL     1      -1.369  -7.599   1.657  1.00  0.00    -0.030 C 
HETATM   19  C   UNL     1      -0.618  -6.366   1.254  1.00  0.00     0.041 C 
ENDBRANCH   2  14
TORSDOF 4
