REMARK  4 active torsions:
REMARK  status: ('A' for Active; 'I' for Inactive)
REMARK    1  A    between atoms: C_5  and  N_8 
REMARK       I    between atoms: N_8  and  C_9 
REMARK       I    between atoms: C_9  and  N_11 
REMARK    2  A    between atoms: N_11  and  C_12 
REMARK    3  A    between atoms: N_16  and  C_17 
REMARK    4  A    between atoms: C_17  and  C_18 
REMARK       I    between atoms: C_18  and  N_20 
ROOT
HETATM    1  N   UNL     1       4.629  -0.788  -3.003  1.00  0.00    -0.338 N 
HETATM    2  C   UNL     1       5.234   0.178  -3.779  1.00  0.00     0.321 C 
HETATM    3  O   UNL     1       4.599   1.066  -4.337  1.00  0.00    -0.247 OA
HETATM    4  N   UNL     1       6.592  -0.032  -3.893  1.00  0.00    -0.306 N 
HETATM    5  H   UNL     1       5.181  -1.141  -2.235  1.00  0.00     0.164 HD
HETATM    6  H   UNL     1       6.956  -0.928  -3.608  1.00  0.00     0.171 HD
ENDROOT
BRANCH   4   7
HETATM    7  C   UNL     1       7.387   0.742  -4.719  1.00  0.00     0.070 C 
HETATM    8  C   UNL     1       7.141   1.992  -5.324  1.00  0.00     0.138 C 
HETATM    9  N   UNL     1       8.135   2.372  -6.131  1.00  0.00    -0.307 N 
HETATM   10  N   UNL     1       9.005   1.341  -6.072  1.00  0.00    -0.293 N 
ATOM     11  HN  UNL     1       8.217   3.237  -6.666  1.00  0.00     0.186 HD
HETATM   12  C   UNL     1       8.644   0.390  -5.155  1.00  0.00     0.141 C 
BRANCH  10  13
HETATM   13  C   UNL     1      10.155   1.377  -6.959  1.00  0.00     0.250 C 
BRANCH  13  14
HETATM   14  C   UNL     1      10.614   0.017  -7.422  1.00  0.00     0.235 C 
HETATM   15  O   UNL     1      11.111  -0.824  -6.682  1.00  0.00    -0.272 OA
HETATM   16  N   UNL     1      10.483  -0.250  -8.757  1.00  0.00    -0.369 N 
HETATM   17  H   UNL     1       9.943   0.330  -9.388  1.00  0.00     0.159 HD
HETATM   18  H   UNL     1      10.754  -1.172  -9.073  1.00  0.00     0.159 HD
ENDBRANCH  13  14
ENDBRANCH  10  13
ENDBRANCH   4   7
BRANCH   1  19
HETATM   19  C   UNL     1       3.176  -0.794  -2.853  1.00  0.00     0.086 C 
HETATM   20  C   UNL     1       2.712   0.203  -1.782  1.00  0.00     0.026 C 
HETATM   21  C   UNL     1       3.018  -0.277  -0.363  1.00  0.00     0.006 C 
HETATM   22  C   UNL     1       2.485  -1.688  -0.080  1.00  0.00    -0.019 C 
HETATM   23  C   UNL     1       0.959  -1.699   0.054  1.00  0.00     0.010 C 
HETATM   24  C   UNL     1       2.965  -2.679  -1.149  1.00  0.00     0.006 C 
HETATM   25  C   UNL     1       2.669  -2.211  -2.574  1.00  0.00     0.026 C 
ENDBRANCH   1  19
TORSDOF 4
