REMARK  4 active torsions:
REMARK  status: ('A' for Active; 'I' for Inactive)
REMARK       I    between atoms: N_2  and  C_3 
REMARK    1  A    between atoms: C_3  and  C_5 
REMARK    2  A    between atoms: C_5  and  N_6 
REMARK       I    between atoms: N_6  and  C_7 
REMARK    3  A    between atoms: C_7  and  C_9 
REMARK    4  A    between atoms: C_9  and  N_11 
ROOT
HETATM    1  N   UNL     1       5.309   1.367  -2.455  1.00  0.00    -0.351 N 
HETATM    2  C   UNL     1       6.668   1.518  -2.523  1.00  0.00     0.240 C 
HETATM    3  O   UNL     1       7.371   1.106  -1.600  1.00  0.00    -0.271 OA
HETATM    4  H   UNL     1       4.948   0.906  -1.623  1.00  0.00     0.163 HD
ENDROOT
BRANCH   2   5
HETATM    5  C   UNL     1       7.256   2.165  -3.782  1.00  0.00     0.178 C 
HETATM    6  C   UNL     1       8.593   2.841  -3.498  1.00  0.00     0.043 C 
BRANCH   5   7
HETATM    7  N   UNL     1       7.359   1.212  -4.883  1.00  0.00    -0.338 N 
HETATM    8  C   UNL     1       7.186   1.512  -6.210  1.00  0.00     0.109 A 
HETATM    9  C   UNL     1       7.326   0.314  -6.869  1.00  0.00     0.106 A 
HETATM   10  N   UNL     1       7.569  -0.700  -5.982  1.00  0.00    -0.361 N 
HETATM   11  C   UNL     1       7.596  -0.131  -4.796  1.00  0.00     0.183 A 
ATOM     12  HN  UNL     1       7.701  -1.689  -6.196  1.00  0.00     0.166 HD
ENDBRANCH   5   7
ENDBRANCH   2   5
BRANCH   1  13
HETATM   13  C   UNL     1       4.348   1.837  -3.431  1.00  0.00     0.225 C 
BRANCH  13  14
HETATM   14  C   UNL     1       2.902   1.540  -3.050  1.00  0.00     0.234 C 
HETATM   15  N   UNL     1       2.002   2.020  -3.981  1.00  0.00    -0.364 N 
HETATM   16  C   UNL     1       0.586   1.830  -3.817  1.00  0.00     0.149 C 
HETATM   17  H   UNL     1       2.337   2.448  -4.834  1.00  0.00     0.161 HD
HETATM   18  O   UNL     1       2.585   0.954  -2.020  1.00  0.00    -0.272 OA
ENDBRANCH  13  14
ENDBRANCH   1  13
TORSDOF 4
