REMARK  4 active torsions:
REMARK  status: ('A' for Active; 'I' for Inactive)
REMARK       I    between atoms: N_1  and  C_2 
REMARK    1  A    between atoms: C_2  and  C_4 
REMARK    2  A    between atoms: C_4  and  N_5 
REMARK    3  A    between atoms: C_7  and  C_11 
REMARK    4  A    between atoms: C_11  and  O_13 
ROOT
HETATM    1  N   UNL     1       4.707   0.681  -0.739  1.00  0.00    -0.276 N 
HETATM    2  C   UNL     1       5.595   1.690  -0.524  1.00  0.00     0.146 A 
HETATM    3  C   UNL     1       6.821   1.059  -0.496  1.00  0.00     0.136 A 
HETATM    4  N   UNL     1       6.635  -0.289  -0.703  1.00  0.00    -0.277 N 
ATOM      5  HN  UNL     1       7.368  -0.998  -0.724  1.00  0.00     0.184 HD
HETATM    6  N   UNL     1       5.337  -0.506  -0.871  1.00  0.00    -0.020 NA
ENDROOT
BRANCH   1   7
HETATM    7  C   UNL     1       3.275   0.773  -0.919  1.00  0.00     0.248 C 
BRANCH   7   8
HETATM    8  C   UNL     1       2.518   0.063   0.177  1.00  0.00     0.234 C 
HETATM    9  N   UNL     1       2.630  -1.299   0.214  1.00  0.00    -0.369 N 
HETATM   10  H   UNL     1       2.192  -1.770   0.996  1.00  0.00     0.159 HD
HETATM   11  H   UNL     1       3.435  -1.757  -0.205  1.00  0.00     0.159 HD
HETATM   12  O   UNL     1       1.783   0.650   0.966  1.00  0.00    -0.272 OA
ENDBRANCH   7   8
ENDBRANCH   1   7
BRANCH   3  13
HETATM   13  C   UNL     1       8.134   1.646  -0.297  1.00  0.00     0.196 C 
HETATM   14  O   UNL     1       8.335   2.841  -0.139  1.00  0.00    -0.645 OA
BRANCH  13  15
HETATM   15  O   UNL     1       9.138   0.730  -0.308  1.00  0.00    -0.772 OA
HETATM   16  H   UNL     1       8.769  -0.168  -0.450  1.00  0.00     0.167 HD
ENDBRANCH  13  15
ENDBRANCH   3  13
TORSDOF 4
