REMARK  6 active torsions:
REMARK  status: ('A' for Active; 'I' for Inactive)
REMARK    1  A    between atoms: O_2  and  C_3 
REMARK    2  A    between atoms: C_6  and  C_10 
REMARK    3  A    between atoms: C_10  and  O_11 
REMARK    4  A    between atoms: C_10  and  C_12 
REMARK    5  A    between atoms: C_12  and  N_13 
REMARK    6  A    between atoms: C_16  and  C_21 
ROOT
HETATM    1  C   UNL     1       4.091  -5.588  -2.775  1.00  0.00     0.189 C 
ENDROOT
BRANCH   1   2
HETATM    2  C   UNL     1       4.509  -4.149  -3.163  1.00  0.00     0.171 C 
BRANCH   2   3
HETATM    3  C   UNL     1       4.039  -3.054  -2.225  1.00  0.00    -0.025 A 
HETATM    4  C   UNL     1       3.731  -1.781  -2.735  1.00  0.00     0.013 A 
HETATM    5  C   UNL     1       3.216  -0.780  -1.902  1.00  0.00     0.040 A 
HETATM    6  C   UNL     1       2.994  -1.035  -0.549  1.00  0.00     0.106 A 
HETATM    7  C   UNL     1       3.380  -2.269  -0.027  1.00  0.00     0.150 A 
HETATM    8  C   UNL     1       3.904  -3.263  -0.848  1.00  0.00     0.055 A 
HETATM    9  F   UNL     1       3.263  -2.543   1.280  1.00  0.00    -0.203 F 
BRANCH   6  10
HETATM   10  O   UNL     1       2.425  -0.015   0.165  1.00  0.00    -0.353 OA
HETATM   11  C   UNL     1       1.545  -0.447   1.203  1.00  0.00     0.210 C 
ENDBRANCH   6  10
ENDBRANCH   2   3
BRANCH   2  12
HETATM   12  O   UNL     1       5.939  -4.093  -3.243  1.00  0.00    -0.389 OA
HETATM   13  H   UNL     1       6.283  -4.045  -2.335  1.00  0.00     0.210 HD
ENDBRANCH   2  12
ENDBRANCH   1   2
BRANCH   1  14
HETATM   14  N   UNL     1       2.649  -5.816  -2.679  1.00  0.00    -0.255 N 
HETATM   15  N   UNL     1       2.153  -6.101  -1.418  1.00  0.00    -0.291 N 
HETATM   16  C   UNL     1       0.889  -6.397  -1.306  1.00  0.00     0.132 A 
ATOM     17  HN  UNL     1       2.761  -6.080  -0.599  1.00  0.00     0.187 HD
HETATM   18  C   UNL     1      -0.033  -6.470  -2.465  1.00  0.00     0.041 A 
HETATM   19  C   UNL     1       0.464  -6.176  -3.668  1.00  0.00     0.078 A 
HETATM   20  C   UNL     1       1.884  -5.812  -3.834  1.00  0.00     0.262 A 
HETATM   21  O   UNL     1       2.306  -5.550  -4.956  1.00  0.00    -0.267 OA
BRANCH  16  22
HETATM   22  C   UNL     1       0.288  -6.693   0.073  1.00  0.00     0.433 C 
HETATM   23  F   UNL     1      -1.035  -7.019   0.011  1.00  0.00    -0.165 F 
HETATM   24  F   UNL     1       0.903  -7.736   0.693  1.00  0.00    -0.165 F 
HETATM   25  F   UNL     1       0.374  -5.628   0.915  1.00  0.00    -0.165 F 
ENDBRANCH  16  22
ENDBRANCH   1  14
TORSDOF 6
