REMARK  7 active torsions:
REMARK  status: ('A' for Active; 'I' for Inactive)
REMARK    1  A    between atoms: O_1  and  C_2 
REMARK    2  A    between atoms: C_2  and  C_3 
REMARK    3  A    between atoms: C_2  and  C_12 
REMARK    4  A    between atoms: C_3  and  O_4 
REMARK    5  A    between atoms: O_4  and  C_5 
REMARK    6  A    between atoms: C_12  and  N_13 
REMARK    7  A    between atoms: C_17  and  C_21 
ROOT
HETATM    1  C   UNL     1       3.104   0.338  -1.236  1.00  0.00     0.166 C 
ENDROOT
BRANCH   1   2
HETATM    2  C   UNL     1       2.548  -0.024   0.146  1.00  0.00     0.161 C 
BRANCH   2   3
HETATM    3  O   UNL     1       3.021   0.935   1.107  1.00  0.00    -0.392 OA
HETATM    4  H   UNL     1       2.669   0.695   1.982  1.00  0.00     0.210 HD
ENDBRANCH   2   3
BRANCH   2   5
HETATM    5  C   UNL     1       1.024  -0.026   0.214  1.00  0.00     0.209 C 
BRANCH   5   6
HETATM    6  O   UNL     1       0.440  -0.996  -0.651  1.00  0.00    -0.347 OA
BRANCH   6   7
HETATM    7  C   UNL     1      -0.936  -1.023  -0.575  1.00  0.00     0.090 A 
HETATM    8  C   UNL     1      -1.631  -0.827   0.631  1.00  0.00     0.038 A 
HETATM    9  C   UNL     1      -3.023  -0.825   0.661  1.00  0.00     0.003 A 
HETATM   10  C   UNL     1      -3.742  -1.051  -0.506  1.00  0.00     0.002 A 
HETATM   11  C   UNL     1      -3.068  -1.294  -1.704  1.00  0.00     0.026 A 
HETATM   12  C   UNL     1      -1.669  -1.286  -1.740  1.00  0.00     0.067 A 
HETATM   13 CL   UNL     1      -0.889  -1.579  -3.252  1.00  0.00    -0.081 Cl
ENDBRANCH   6   7
ENDBRANCH   5   6
ENDBRANCH   2   5
ENDBRANCH   1   2
BRANCH   1  14
HETATM   14  N   UNL     1       4.572   0.334  -1.355  1.00  0.00    -0.308 N 
HETATM   15  C   UNL     1       5.412  -0.010  -0.327  1.00  0.00     0.186 A 
HETATM   16  N   UNL     1       6.702   0.031  -0.358  1.00  0.00    -0.355 N 
HETATM   17  C   UNL     1       7.275   0.461  -1.522  1.00  0.00     0.019 A 
ATOM     18  HN  UNL     1       7.266  -0.244   0.446  1.00  0.00     0.166 HD
HETATM   19  C   UNL     1       6.583   0.811  -2.612  1.00  0.00     0.100 A 
HETATM   20  C   UNL     1       5.112   0.758  -2.552  1.00  0.00     0.250 A 
HETATM   21  O   UNL     1       4.456   1.098  -3.534  1.00  0.00    -0.268 OA
BRANCH  17  22
HETATM   22  C   UNL     1       8.757   0.598  -1.543  1.00  0.00     0.036 C 
HETATM   23  C   UNL     1       9.526  -0.359  -2.492  1.00  0.00     0.011 C 
HETATM   24  C   UNL     1      10.643  -0.391  -1.427  1.00  0.00     0.001 C 
HETATM   25  C   UNL     1       9.551  -0.075  -0.386  1.00  0.00     0.011 C 
ENDBRANCH  17  22
ENDBRANCH   1  14
TORSDOF 7
