REMARK  5 active torsions:
REMARK  status: ('A' for Active; 'I' for Inactive)
REMARK    1  A    between atoms: C_2  and  C_5 
REMARK    2  A    between atoms: C_9  and  N_10 
REMARK       I    between atoms: N_10  and  C_11 
REMARK       I    between atoms: C_11  and  N_13 
REMARK    3  A    between atoms: N_13  and  C_14 
REMARK    4  A    between atoms: C_14  and  C_15 
REMARK       I    between atoms: C_15  and  N_17 
REMARK    5  A    between atoms: N_17  and  C_18 
ROOT
HETATM    1  N   UNL     1       4.060   4.063   3.648  1.00  0.00    -0.306 N 
HETATM    2  C   UNL     1       4.596   3.841   4.895  1.00  0.00     0.321 C 
HETATM    3  O   UNL     1       4.922   2.753   5.353  1.00  0.00    -0.247 OA
HETATM    4  N   UNL     1       4.775   4.991   5.621  1.00  0.00    -0.334 N 
HETATM    5  H   UNL     1       3.899   5.024   3.380  1.00  0.00     0.171 HD
HETATM    6  H   UNL     1       4.221   5.814   5.425  1.00  0.00     0.164 HD
ENDROOT
BRANCH   1   7
HETATM    7  C   UNL     1       3.779   3.053   2.694  1.00  0.00     0.067 A 
HETATM    8  C   UNL     1       3.986   1.704   2.886  1.00  0.00     0.120 A 
HETATM    9  N   UNL     1       3.695   0.751   1.975  1.00  0.00    -0.353 N 
HETATM   10  C   UNL     1       3.167   1.149   0.806  1.00  0.00     0.088 A 
ATOM     11  HN  UNL     1       3.870  -0.235   2.168  1.00  0.00     0.166 HD
HETATM   12  N   UNL     1       2.939   2.445   0.500  1.00  0.00    -0.353 N 
HETATM   13  C   UNL     1       3.252   3.360   1.453  1.00  0.00     0.120 A 
ATOM     14  HN  UNL     1       2.551   2.722  -0.402  1.00  0.00     0.166 HD
BRANCH  10  15
HETATM   15  C   UNL     1       2.772   0.063  -0.193  1.00  0.00     0.007 C 
HETATM   16  C   UNL     1       3.047  -1.346   0.384  1.00  0.00     0.022 C 
HETATM   17  C   UNL     1       3.579   0.211  -1.494  1.00  0.00     0.022 C 
HETATM   18  C   UNL     1       1.270   0.170  -0.502  1.00  0.00     0.022 C 
ENDBRANCH  10  15
ENDBRANCH   1   7
BRANCH   4  19
HETATM   19  C   UNL     1       5.298   4.865   6.970  1.00  0.00     0.227 C 
BRANCH  19  20
HETATM   20  C   UNL     1       5.464   6.204   7.680  1.00  0.00     0.235 C 
HETATM   21  O   UNL     1       5.056   7.263   7.209  1.00  0.00    -0.272 OA
HETATM   22  N   UNL     1       6.090   6.090   8.907  1.00  0.00    -0.355 N 
HETATM   23  H   UNL     1       6.207   5.158   9.286  1.00  0.00     0.162 HD
BRANCH  22  24
HETATM   24  C   UNL     1       6.266   7.220   9.814  1.00  0.00     0.084 C 
HETATM   25  C   UNL     1       7.462   6.986  10.747  1.00  0.00     0.025 C 
HETATM   26  C   UNL     1       7.205   5.885  11.778  1.00  0.00     0.002 C 
HETATM   27  C   UNL     1       5.909   6.111  12.553  1.00  0.00     0.000 C 
HETATM   28  C   UNL     1       4.716   6.359  11.634  1.00  0.00     0.002 C 
HETATM   29  C   UNL     1       4.995   7.480  10.632  1.00  0.00     0.025 C 
ENDBRANCH  22  24
ENDBRANCH  19  20
ENDBRANCH   4  19
TORSDOF 5
