REMARK  5 active torsions:
REMARK  status: ('A' for Active; 'I' for Inactive)
REMARK    1  A    between atoms: C_2  and  N_3 
REMARK    2  A    between atoms: C_7  and  C_8 
REMARK    3  A    between atoms: C_8  and  N_9 
REMARK    4  A    between atoms: N_9  and  C_10 
REMARK    5  A    between atoms: C_15  and  C_18 
ROOT
HETATM    1  C   UNL     1      -2.419   2.855  -3.386  1.00  0.00     0.157 A 
HETATM    2  N   UNL     1      -2.792   1.883  -4.227  1.00  0.00    -0.343 N 
ATOM      3  HN  UNL     1      -2.257   1.019  -4.312  1.00  0.00     0.167 HD
HETATM    4  C   UNL     1      -3.902   2.094  -4.955  1.00  0.00     0.093 A 
HETATM    5  C   UNL     1      -4.650   3.242  -4.879  1.00  0.00     0.051 A 
HETATM    6  C   UNL     1      -4.191   4.207  -4.002  1.00  0.00     0.120 A 
HETATM    7  N   UNL     1      -3.070   4.016  -3.258  1.00  0.00    -0.329 N 
ATOM      8  HN  UNL     1      -2.735   4.738  -2.620  1.00  0.00     0.168 HD
ENDROOT
BRANCH   1   9
HETATM    9  N   UNL     1      -1.344   2.680  -2.544  1.00  0.00    -0.262 NA
HETATM   10  H   UNL     1      -1.034   3.594  -2.226  1.00  0.00     0.130 HD
BRANCH   9  11
HETATM   11  C   UNL     1      -0.262   1.821  -3.005  1.00  0.00     0.129 C 
BRANCH  11  12
HETATM   12  C   UNL     1       0.778   1.706  -1.875  1.00  0.00     0.163 C 
HETATM   13  O   UNL     1       1.305   3.026  -1.602  1.00  0.00    -0.381 OA
HETATM   14  C   UNL     1       2.255   2.969  -0.532  1.00  0.00     0.198 C 
HETATM   15  C   UNL     1       3.416   2.014  -0.866  1.00  0.00     0.298 C 
HETATM   16  N   UNL     1       2.988   0.642  -1.237  1.00  0.00     0.092 N 
HETATM   17  C   UNL     1       1.926   0.754  -2.266  1.00  0.00     0.305 C 
BRANCH  16  18
HETATM   18  C   UNL     1       2.601  -0.123  -0.043  1.00  0.00     0.268 C 
HETATM   19  C   UNL     1       2.199  -1.566  -0.333  1.00  0.00     0.037 C 
ENDBRANCH  16  18
ENDBRANCH  11  12
ENDBRANCH   9  11
ENDBRANCH   1   9
BRANCH   6  20
HETATM   20  C   UNL     1      -4.951   5.512  -3.844  1.00  0.00     0.432 C 
HETATM   21  F   UNL     1      -6.055   5.591  -4.648  1.00  0.00    -0.165 F 
HETATM   22  F   UNL     1      -5.414   5.715  -2.578  1.00  0.00    -0.165 F 
HETATM   23  F   UNL     1      -4.202   6.609  -4.154  1.00  0.00    -0.165 F 
ENDBRANCH   6  20
TORSDOF 5
