REMARK  3 active torsions:
REMARK  status: ('A' for Active; 'I' for Inactive)
REMARK    1  A    between atoms: C_9  and  C_10 
REMARK    2  A    between atoms: C_10  and  C_11 
REMARK       I    between atoms: C_11  and  N_13 
REMARK    3  A    between atoms: N_13  and  C_14 
ROOT
HETATM    1  C   UNL     1       2.005   3.110  -0.452  1.00  0.00     0.222 C 
HETATM    2  O   UNL     1       1.245   2.270  -0.929  1.00  0.00    -0.273 OA
HETATM    3  N   UNL     1       1.561   4.295   0.099  1.00  0.00    -0.353 N 
HETATM    4  H   UNL     1       2.253   4.989   0.341  1.00  0.00     0.163 HD
ENDROOT
BRANCH   1   5
HETATM    5  C   UNL     1       3.520   2.930  -0.446  1.00  0.00     0.145 C 
BRANCH   5   6
HETATM    6  C   UNL     1       4.092   2.205   0.737  1.00  0.00    -0.002 A 
HETATM    7  C   UNL     1       3.525   1.172   1.544  1.00  0.00     0.030 A 
HETATM    8  C   UNL     1       2.183   0.538   1.472  1.00  0.00     0.070 C 
HETATM    9  N   UNL     1       4.383   0.740   2.473  1.00  0.00    -0.303 N 
HETATM   10  N   UNL     1       5.498   1.449   2.264  1.00  0.00    -0.300 N 
ATOM     11  HN  UNL     1       4.223   0.027   3.185  1.00  0.00     0.186 HD
HETATM   12  C   UNL     1       6.657   1.178   3.085  1.00  0.00     0.177 C 
HETATM   13  C   UNL     1       5.380   2.359   1.246  1.00  0.00     0.033 A 
HETATM   14  C   UNL     1       6.483   3.263   0.823  1.00  0.00     0.070 C 
ENDBRANCH   5   6
ENDBRANCH   1   5
BRANCH   3  15
HETATM   15  C   UNL     1       0.148   4.681   0.113  1.00  0.00     0.121 C 
HETATM   16  C   UNL     1      -0.248   5.525  -1.094  1.00  0.00     0.065 C 
HETATM   17  C   UNL     1      -1.356   6.455  -0.580  1.00  0.00     0.057 C 
HETATM   18  C   UNL     1      -1.067   7.922  -0.908  1.00  0.00     0.045 C 
HETATM   19  C   UNL     1      -2.738   6.089  -1.124  1.00  0.00     0.045 C 
HETATM   20  O   UNL     1      -1.403   6.321   0.852  1.00  0.00    -0.369 OA
HETATM   21  C   UNL     1      -0.269   5.558   1.307  1.00  0.00     0.075 C 
HETATM   22  C   UNL     1      -0.720   4.715   2.499  1.00  0.00     0.048 C 
HETATM   23  C   UNL     1       0.803   6.556   1.764  1.00  0.00     0.048 C 
ENDBRANCH   3  15
TORSDOF 3
