REMARK  4 active torsions:
REMARK  status: ('A' for Active; 'I' for Inactive)
REMARK    1  A    between atoms: C_2  and  O_3 
REMARK    2  A    between atoms: O_3  and  C_4 
REMARK    3  A    between atoms: C_6  and  N_7 
REMARK       I    between atoms: N_7  and  C_8 
REMARK       I    between atoms: C_8  and  N_10 
REMARK    4  A    between atoms: N_10  and  C_11 
ROOT
HETATM    1  N   UNL     1       6.233  -0.900  -4.152  1.00  0.00    -0.337 N 
HETATM    2  C   UNL     1       6.331  -1.867  -5.140  1.00  0.00     0.322 C 
HETATM    3  O   UNL     1       5.421  -2.657  -5.350  1.00  0.00    -0.247 OA
HETATM    4  N   UNL     1       7.556  -1.844  -5.756  1.00  0.00    -0.289 N 
HETATM    5  H   UNL     1       6.758  -0.051  -4.314  1.00  0.00     0.164 HD
HETATM    6  H   UNL     1       8.313  -1.323  -5.348  1.00  0.00     0.172 HD
ENDROOT
BRANCH   1   7
HETATM    7  C   UNL     1       5.032  -0.860  -3.290  1.00  0.00     0.099 C 
HETATM    8  C   UNL     1       4.980   0.305  -2.268  1.00  0.00     0.059 C 
HETATM    9  C   UNL     1       4.399  -0.706  -1.224  1.00  0.00     0.133 C 
HETATM   10  C   UNL     1       5.025  -1.787  -2.098  1.00  0.00     0.006 C 
HETATM   11  C   UNL     1       6.301  -2.418  -1.558  1.00  0.00     0.014 C 
HETATM   12  C   UNL     1       4.400  -3.159  -2.219  1.00  0.00     0.014 C 
HETATM   13  C   UNL     1       5.395  -3.600  -1.114  1.00  0.00     0.002 C 
BRANCH   9  14
HETATM   14  O   UNL     1       2.958  -0.677  -1.107  1.00  0.00    -0.385 OA
BRANCH  14  15
HETATM   15  C   UNL     1       2.390  -1.452  -0.053  1.00  0.00     0.163 C 
HETATM   16  C   UNL     1       0.881  -1.370  -0.150  1.00  0.00     0.033 C 
ENDBRANCH  14  15
ENDBRANCH   9  14
ENDBRANCH   1   7
BRANCH   4  17
HETATM   17  C   UNL     1       7.886  -2.790  -6.688  1.00  0.00     0.152 A 
HETATM   18  N   UNL     1       7.115  -3.644  -7.310  1.00  0.00    -0.346 N 
HETATM   19  C   UNL     1       7.883  -4.471  -8.100  1.00  0.00     0.097 A 
ATOM     20  HN  UNL     1       6.100  -3.691  -7.223  1.00  0.00     0.167 HD
HETATM   21  C   UNL     1       9.237  -4.213  -8.082  1.00  0.00     0.070 A 
HETATM   22  S   UNL     1       9.552  -2.869  -7.059  1.00  0.00    -0.064 SA
ENDBRANCH   4  17
TORSDOF 4
