REMARK  5 active torsions:
REMARK  status: ('A' for Active; 'I' for Inactive)
REMARK    1  A    between atoms: O_1  and  C_2 
REMARK    2  A    between atoms: C_2  and  C_3 
REMARK    3  A    between atoms: C_3  and  N_4 
REMARK    4  A    between atoms: C_5  and  C_6 
REMARK    5  A    between atoms: C_6  and  C_7 
ROOT
HETATM    1  N   UNL     1       4.367  -1.131  -0.694  1.00  0.00    -0.332 N 
HETATM    2  C   UNL     1       5.113   0.010  -0.936  1.00  0.00     0.088 A 
HETATM    3  N   UNL     1       6.393  -0.294  -1.037  1.00  0.00    -0.344 N 
ATOM      4  HN  UNL     1       7.170   0.356  -1.154  1.00  0.00     0.167 HD
HETATM    5  C   UNL     1       6.468  -1.655  -0.953  1.00  0.00     0.060 A 
HETATM    6  C   UNL     1       7.597  -2.484  -1.011  1.00  0.00     0.032 A 
HETATM    7  C   UNL     1       7.418  -3.870  -0.954  1.00  0.00     0.002 A 
HETATM    8  C   UNL     1       6.139  -4.419  -0.849  1.00  0.00     0.002 A 
HETATM    9  C   UNL     1       5.003  -3.606  -0.757  1.00  0.00     0.032 A 
HETATM   10  C   UNL     1       5.208  -2.219  -0.796  1.00  0.00     0.062 A 
ENDROOT
BRANCH   2  11
HETATM   11  C   UNL     1       4.553   1.400  -1.051  1.00  0.00     0.115 C 
BRANCH  11  12
HETATM   12  C   UNL     1       4.056   1.812  -2.429  1.00  0.00    -0.051 A 
HETATM   13  C   UNL     1       4.050   0.958  -3.542  1.00  0.00     0.007 A 
HETATM   14  C   UNL     1       3.479   1.363  -4.752  1.00  0.00     0.001 A 
HETATM   15  C   UNL     1       2.929   2.636  -4.877  1.00  0.00     0.000 A 
HETATM   16  C   UNL     1       2.982   3.520  -3.803  1.00  0.00     0.001 A 
HETATM   17  C   UNL     1       3.545   3.113  -2.591  1.00  0.00     0.007 A 
ENDBRANCH  11  12
ENDBRANCH   2  11
BRANCH   1  18
HETATM   18  C   UNL     1       2.962  -1.205  -0.325  1.00  0.00     0.156 C 
BRANCH  18  19
HETATM   19  C   UNL     1       2.780  -1.277   1.191  1.00  0.00     0.184 C 
BRANCH  19  20
HETATM   20  O   UNL     1       3.121  -0.034   1.797  1.00  0.00    -0.399 OA
HETATM   21  H   UNL     1       3.581  -0.234   2.633  1.00  0.00     0.209 HD
ENDBRANCH  19  20
ENDBRANCH  18  19
ENDBRANCH   1  18
TORSDOF 5
