REMARK  5 active torsions:
REMARK  status: ('A' for Active; 'I' for Inactive)
REMARK    1  A    between atoms: C_2  and  C_3 
REMARK    2  A    between atoms: C_2  and  N_11 
REMARK    3  A    between atoms: C_3  and  N_4 
REMARK    4  A    between atoms: N_11  and  C_12 
REMARK    5  A    between atoms: C_12  and  C_13 
REMARK       I    between atoms: C_13  and  N_15 
ROOT
HETATM    1  N   UNL     1       3.172  -1.094  -0.944  1.00  0.00     0.098 N 
HETATM    2  H   UNL     1       2.775  -1.080  -1.884  1.00  0.00     0.317 HD
ENDROOT
BRANCH   1   3
HETATM    3  C   UNL     1       2.633  -0.034  -0.075  1.00  0.00     0.236 C 
HETATM    4  C   UNL     1       2.911   1.362  -0.648  1.00  0.00     0.044 C 
BRANCH   3   5
HETATM    5  C   UNL     1       1.112  -0.186   0.130  1.00  0.00     0.183 C 
BRANCH   5   6
HETATM    6  N   UNL     1       0.740  -1.430   0.774  1.00  0.00    -0.301 N 
HETATM    7  C   UNL     1       0.378  -2.588   0.149  1.00  0.00     0.118 A 
HETATM    8  C   UNL     1       0.123  -3.505   1.145  1.00  0.00    -0.028 A 
HETATM    9  C   UNL     1      -0.254  -4.926   0.996  1.00  0.00     0.051 C 
HETATM   10  C   UNL     1       0.321  -2.775   2.337  1.00  0.00     0.115 A 
HETATM   11  N   UNL     1       0.677  -1.506   2.118  1.00  0.00    -0.310 N 
ATOM     12  HN  UNL     1       0.858  -0.772   2.803  1.00  0.00     0.186 HD
ENDBRANCH   5   6
ENDBRANCH   3   5
ENDBRANCH   1   3
BRANCH   1  13
HETATM   13  C   UNL     1       4.636  -1.089  -1.022  1.00  0.00     0.372 C 
BRANCH  13  14
HETATM   14  C   UNL     1       5.172  -2.177  -1.968  1.00  0.00     0.248 C 
HETATM   15  O   UNL     1       4.423  -2.897  -2.632  1.00  0.00    -0.271 OA
HETATM   16  N   UNL     1       6.557  -2.250  -2.071  1.00  0.00    -0.346 N 
HETATM   17  C   UNL     1       7.510  -1.305  -1.478  1.00  0.00     0.152 C 
HETATM   18  C   UNL     1       7.169  -3.150  -3.050  1.00  0.00     0.157 C 
HETATM   19  C   UNL     1       8.232  -0.535  -2.589  1.00  0.00     0.188 C 
HETATM   20  O   UNL     1       8.880  -1.439  -3.497  1.00  0.00    -0.383 OA
HETATM   21  C   UNL     1       7.927  -2.331  -4.115  1.00  0.00     0.135 C 
HETATM   22  C   UNL     1       8.702  -3.240  -5.057  1.00  0.00     0.041 C 
ENDBRANCH  13  14
ENDBRANCH   1  13
TORSDOF 5
