REMARK  3 active torsions:
REMARK  status: ('A' for Active; 'I' for Inactive)
REMARK       I    between atoms: C_2  and  N_4 
REMARK       I    between atoms: N_7  and  C_10 
REMARK       I    between atoms: C_10  and  N_12 
REMARK    1  A    between atoms: N_12  and  C_13 
REMARK    2  A    between atoms: C_13  and  C_14 
REMARK    3  A    between atoms: C_14  and  N_15 
ROOT
HETATM    1  C   UNL     1       2.247   1.459  -0.355  1.00  0.00     0.117 C 
HETATM    2  C   UNL     1       2.652   0.045  -0.029  1.00  0.00     0.215 C 
HETATM    3  O   UNL     1       2.505  -0.393   1.112  1.00  0.00    -0.274 OA
HETATM    4  N   UNL     1       3.164  -0.718  -1.064  1.00  0.00    -0.349 N 
HETATM    5  C   UNL     1       3.434  -0.230  -2.421  1.00  0.00     0.145 C 
HETATM    6  C   UNL     1       2.985  -1.244  -3.486  1.00  0.00     0.147 C 
HETATM    7  N   UNL     1       3.507  -2.586  -3.206  1.00  0.00    -0.331 N 
HETATM    8  C   UNL     1       3.230  -3.073  -1.846  1.00  0.00     0.147 C 
HETATM    9  C   UNL     1       3.681  -2.064  -0.782  1.00  0.00     0.145 C 
HETATM   10  C   UNL     1       4.266  -3.371  -4.049  1.00  0.00     0.318 C 
HETATM   11  O   UNL     1       4.776  -4.430  -3.699  1.00  0.00    -0.247 OA
HETATM   12  N   UNL     1       4.426  -2.881  -5.324  1.00  0.00    -0.341 N 
HETATM   13  H   UNL     1       3.598  -2.431  -5.681  1.00  0.00     0.164 HD
ENDROOT
BRANCH  12  14
HETATM   14  C   UNL     1       5.172  -3.685  -6.282  1.00  0.00     0.144 C 
BRANCH  14  15
HETATM   15  C   UNL     1       5.378  -2.971  -7.612  1.00  0.00     0.149 C 
BRANCH  15  16
HETATM   16  N   UNL     1       6.102  -3.788  -8.562  1.00  0.00    -0.350 N 
HETATM   17  C   UNL     1       5.556  -4.652  -9.467  1.00  0.00     0.108 A 
HETATM   18  C   UNL     1       6.632  -5.181 -10.143  1.00  0.00     0.106 A 
HETATM   19  N   UNL     1       7.808  -4.651  -9.675  1.00  0.00    -0.361 N 
HETATM   20  C   UNL     1       7.458  -3.816  -8.723  1.00  0.00     0.182 A 
ATOM     21  HN  UNL     1       8.753  -4.861  -9.998  1.00  0.00     0.166 HD
ENDBRANCH  15  16
ENDBRANCH  14  15
ENDBRANCH  12  14
TORSDOF 3
