REMARK  5 active torsions:
REMARK  status: ('A' for Active; 'I' for Inactive)
REMARK    1  A    between atoms: C_5  and  C_6 
REMARK    2  A    between atoms: C_6  and  C_7 
REMARK    3  A    between atoms: C_7  and  N_8 
REMARK       I    between atoms: N_8  and  C_9 
REMARK    4  A    between atoms: C_9  and  C_11 
REMARK    5  A    between atoms: N_13  and  C_14 
ROOT
HETATM    1  N   UNL     1       8.261   1.821   0.013  1.00  0.00    -0.360 N 
HETATM    2  C   UNL     1       9.483   1.263   0.302  1.00  0.00     0.223 C 
HETATM    3  O   UNL     1       9.608   0.060   0.526  1.00  0.00    -0.273 OA
HETATM    4  H   UNL     1       8.147   2.826  -0.048  1.00  0.00     0.162 HD
ENDROOT
BRANCH   1   5
HETATM    5  C   UNL     1       7.046   1.015   0.005  1.00  0.00     0.128 C 
BRANCH   5   6
HETATM    6  C   UNL     1       6.497   0.701   1.400  1.00  0.00     0.077 C 
BRANCH   6   7
HETATM    7  C   UNL     1       5.997   1.913   2.119  1.00  0.00     0.018 A 
HETATM    8  N   UNL     1       5.026   2.696   1.514  1.00  0.00    -0.357 N 
HETATM    9  C   UNL     1       4.696   3.699   2.300  1.00  0.00     0.046 A 
ATOM     10  HN  UNL     1       4.625   2.520   0.593  1.00  0.00     0.166 HD
HETATM   11  C   UNL     1       3.679   4.732   1.966  1.00  0.00     0.076 C 
HETATM   12  S   UNL     1       5.535   3.769   3.797  1.00  0.00    -0.087 SA
HETATM   13  C   UNL     1       6.391   2.349   3.370  1.00  0.00     0.076 A 
ENDBRANCH   6   7
ENDBRANCH   5   6
ENDBRANCH   1   5
BRANCH   2  14
HETATM   14  C   UNL     1      10.683   2.184   0.209  1.00  0.00     0.104 C 
HETATM   15  C   UNL     1      11.809   1.599   1.052  1.00  0.00     0.141 C 
HETATM   16  N   UNL     1      12.584   2.734   1.481  1.00  0.00    -0.347 N 
HETATM   17  C   UNL     1      11.840   3.911   1.400  1.00  0.00     0.221 C 
HETATM   18  O   UNL     1      12.152   5.010   1.829  1.00  0.00    -0.273 OA
HETATM   19  C   UNL     1      10.505   3.588   0.773  1.00  0.00     0.118 C 
BRANCH  16  20
HETATM   20  C   UNL     1      13.618   2.572   2.457  1.00  0.00     0.087 A 
HETATM   21  C   UNL     1      15.053   2.890   2.145  1.00  0.00     0.027 A 
HETATM   22  C   UNL     1      14.637   1.466   2.367  1.00  0.00     0.027 A 
ENDBRANCH  16  20
ENDBRANCH   2  14
TORSDOF 5
