REMARK  8 active torsions:
REMARK  status: ('A' for Active; 'I' for Inactive)
REMARK    1  A    between atoms: O_1  and  C_2 
REMARK    2  A    between atoms: C_2  and  C_3 
REMARK    3  A    between atoms: C_3  and  C_4 
REMARK    4  A    between atoms: C_4  and  C_5 
REMARK    5  A    between atoms: N_14  and  C_15 
REMARK    6  A    between atoms: C_15  and  C_16 
REMARK    7  A    between atoms: C_16  and  O_17 
REMARK    8  A    between atoms: C_16  and  C_18 
ROOT
HETATM    1  C   UNL     1       4.751  -2.543   1.549  1.00  0.00     0.084 A 
HETATM    2  N   UNL     1       5.470  -2.501   2.653  1.00  0.00    -0.344 N 
ATOM      3  HN  UNL     1       5.837  -1.669   3.115  1.00  0.00     0.167 HD
HETATM    4  C   UNL     1       5.624  -3.799   3.053  1.00  0.00     0.060 A 
HETATM    5  C   UNL     1       6.304  -4.305   4.172  1.00  0.00     0.032 A 
HETATM    6  C   UNL     1       6.331  -5.687   4.376  1.00  0.00     0.002 A 
HETATM    7  C   UNL     1       5.696  -6.548   3.479  1.00  0.00     0.002 A 
HETATM    8  C   UNL     1       5.017  -6.064   2.357  1.00  0.00     0.032 A 
HETATM    9  C   UNL     1       4.998  -4.675   2.171  1.00  0.00     0.062 A 
HETATM   10  N   UNL     1       4.450  -3.848   1.212  1.00  0.00    -0.332 N 
ENDROOT
BRANCH  10  11
HETATM   11  C   UNL     1       3.760  -4.289   0.012  1.00  0.00     0.171 C 
BRANCH  11  12
HETATM   12  C   UNL     1       2.244  -4.401   0.181  1.00  0.00     0.243 C 
BRANCH  12  13
HETATM   13  O   UNL     1       1.690  -3.144   0.629  1.00  0.00    -0.385 OA
HETATM   14  H   UNL     1       1.568  -2.566  -0.149  1.00  0.00     0.210 HD
ENDBRANCH  12  13
BRANCH  12  15
HETATM   15  C   UNL     1       1.608  -4.877  -1.136  1.00  0.00     0.414 C 
HETATM   16  F   UNL     1       2.528  -5.125  -2.095  1.00  0.00    -0.168 F 
HETATM   17  F   UNL     1       0.890  -6.006  -0.959  1.00  0.00    -0.168 F 
HETATM   18  F   UNL     1       0.772  -3.931  -1.632  1.00  0.00    -0.168 F 
ENDBRANCH  12  15
ENDBRANCH  11  12
ENDBRANCH  10  11
BRANCH   1  19
HETATM   19  C   UNL     1       4.335  -1.333   0.773  1.00  0.00     0.079 C 
BRANCH  19  20
HETATM   20  C   UNL     1       5.533  -0.529   0.268  1.00  0.00     0.033 C 
BRANCH  20  21
HETATM   21  C   UNL     1       6.417  -1.300  -0.705  1.00  0.00     0.164 C 
BRANCH  21  22
HETATM   22  O   UNL     1       5.643  -1.762  -1.808  1.00  0.00    -0.401 OA
HETATM   23  H   UNL     1       6.273  -2.151  -2.440  1.00  0.00     0.209 HD
ENDBRANCH  21  22
ENDBRANCH  20  21
ENDBRANCH  19  20
ENDBRANCH   1  19
TORSDOF 8
