REMARK  5 active torsions:
REMARK  status: ('A' for Active; 'I' for Inactive)
REMARK    1  A    between atoms: N_7  and  C_8 
REMARK    2  A    between atoms: C_8  and  C_9 
REMARK       I    between atoms: C_9  and  N_11 
REMARK    3  A    between atoms: N_11  and  C_12 
REMARK    4  A    between atoms: C_12  and  C_13 
REMARK    5  A    between atoms: C_12  and  C_16 
ROOT
HETATM    1  C   UNL     1       1.296  -2.716   0.563  1.00  0.00     0.236 C 
HETATM    2  O   UNL     1       0.711  -1.838   1.196  1.00  0.00    -0.272 OA
HETATM    3  N   UNL     1       0.641  -3.731  -0.114  1.00  0.00    -0.354 N 
HETATM    4  H   UNL     1       1.162  -4.569  -0.376  1.00  0.00     0.162 HD
ENDROOT
BRANCH   1   5
HETATM    5  C   UNL     1       2.827  -2.725   0.467  1.00  0.00     0.235 C 
BRANCH   5   6
HETATM    6  N   UNL     1       3.507  -3.325   1.599  1.00  0.00    -0.303 N 
HETATM    7  C   UNL     1       4.041  -2.646   2.689  1.00  0.00     0.018 A 
HETATM    8  C   UNL     1       3.859  -1.183   2.912  1.00  0.00     0.069 C 
HETATM    9  C   UNL     1       4.741  -3.442   3.513  1.00  0.00     0.080 A 
HETATM   10  S   UNL     1       4.761  -5.090   2.975  1.00  0.00    -0.039 SA
HETATM   11  C   UNL     1       3.775  -4.686   1.565  1.00  0.00     0.290 A 
HETATM   12  O   UNL     1       3.430  -5.489   0.714  1.00  0.00    -0.259 OA
ENDBRANCH   5   6
ENDBRANCH   1   5
BRANCH   3  13
HETATM   13  C   UNL     1      -0.810  -3.755  -0.217  1.00  0.00     0.092 C 
BRANCH  13  14
HETATM   14  C   UNL     1      -1.247  -4.609  -1.384  1.00  0.00     0.009 A 
HETATM   15  C   UNL     1      -0.937  -4.255  -2.820  1.00  0.00     0.007 A 
HETATM   16  C   UNL     1      -2.333  -4.078  -2.299  1.00  0.00     0.007 A 
ENDBRANCH  13  14
BRANCH  13  17
HETATM   17  C   UNL     1      -1.421  -4.245   1.072  1.00  0.00     0.009 A 
HETATM   18  C   UNL     1      -2.921  -4.391   1.244  1.00  0.00     0.007 A 
HETATM   19  C   UNL     1      -2.193  -3.274   1.931  1.00  0.00     0.007 A 
ENDBRANCH  13  17
ENDBRANCH   3  13
TORSDOF 5
