REMARK  4 active torsions:
REMARK  status: ('A' for Active; 'I' for Inactive)
REMARK    1  A    between atoms: C_5  and  C_7 
REMARK    2  A    between atoms: N_12  and  C_13 
REMARK    3  A    between atoms: C_13  and  C_14 
REMARK    4  A    between atoms: C_14  and  O_15 
ROOT
HETATM    1  C   UNL     1       6.806  -2.035   1.503  1.00  0.00     0.065 A 
HETATM    2  C   UNL     1       7.114  -1.147   0.353  1.00  0.00     0.038 A 
HETATM    3  C   UNL     1       7.187  -1.693  -0.860  1.00  0.00     0.078 A 
HETATM    4  C   UNL     1       6.936  -3.133  -1.045  1.00  0.00     0.262 A 
HETATM    5  O   UNL     1       6.970  -3.612  -2.177  1.00  0.00    -0.267 OA
HETATM    6  N   UNL     1       6.647  -3.857   0.100  1.00  0.00    -0.254 N 
HETATM    7  N   UNL     1       6.577  -3.309   1.368  1.00  0.00    -0.294 N 
ATOM      8  HN  UNL     1       6.352  -3.889   2.177  1.00  0.00     0.187 HD
ENDROOT
BRANCH   6   9
HETATM    9  C   UNL     1       6.366  -5.289  -0.005  1.00  0.00     0.190 C 
BRANCH   9  10
HETATM   10  C   UNL     1       4.893  -5.616  -0.386  1.00  0.00     0.076 C 
HETATM   11  C   UNL     1       3.867  -5.028   0.601  1.00  0.00     0.040 C 
HETATM   12  C   UNL     1       3.919  -5.689   1.976  1.00  0.00     0.003 C 
HETATM   13  C   UNL     1       3.729  -7.200   1.869  1.00  0.00     0.000 C 
HETATM   14  C   UNL     1       4.722  -7.833   0.898  1.00  0.00     0.003 C 
HETATM   15  C   UNL     1       4.694  -7.145  -0.466  1.00  0.00     0.040 C 
BRANCH  10  16
HETATM   16  O   UNL     1       4.567  -5.098  -1.688  1.00  0.00    -0.388 OA
HETATM   17  H   UNL     1       5.379  -4.750  -2.111  1.00  0.00     0.210 HD
ENDBRANCH  10  16
ENDBRANCH   9  10
ENDBRANCH   6   9
BRANCH   1  18
HETATM   18  C   UNL     1       6.734  -1.464   2.843  1.00  0.00     0.033 A 
HETATM   19  C   UNL     1       6.010  -1.925   3.928  1.00  0.00     0.022 A 
HETATM   20  C   UNL     1       6.170  -1.104   5.085  1.00  0.00     0.015 A 
HETATM   21  C   UNL     1       7.036  -0.056   4.862  1.00  0.00    -0.021 A 
HETATM   22  C   UNL     1       7.469   1.021   5.796  1.00  0.00     0.056 C 
HETATM   23  S   UNL     1       7.651  -0.080   3.271  1.00  0.00    -0.093 SA
ENDBRANCH   1  18
TORSDOF 4
