REMARK  5 active torsions:
REMARK  status: ('A' for Active; 'I' for Inactive)
REMARK    1  A    between atoms: N_1  and  S_2 
REMARK    2  A    between atoms: S_2  and  N_5 
REMARK    3  A    between atoms: N_5  and  C_6 
REMARK    4  A    between atoms: C_6  and  C_7 
REMARK    5  A    between atoms: C_12  and  N_14 
ROOT
HETATM    1  C   UNL     1       5.089  -2.353   2.061  1.00  0.00    -0.039 A 
HETATM    2  C   UNL     1       5.921  -2.125   3.151  1.00  0.00     0.025 A 
HETATM    3  C   UNL     1       6.246  -3.201   3.952  1.00  0.00     0.090 A 
HETATM    4  N   UNL     1       5.813  -4.462   3.736  1.00  0.00    -0.352 N 
ATOM      5  HN  UNL     1       6.074  -5.214   4.374  1.00  0.00     0.166 HD
HETATM    6  C   UNL     1       5.030  -4.715   2.665  1.00  0.00     0.103 A 
HETATM    7  C   UNL     1       4.650  -3.667   1.826  1.00  0.00     0.056 A 
ENDROOT
BRANCH   1   8
HETATM    8  C   UNL     1       4.704  -1.235   1.124  1.00  0.00     0.144 C 
BRANCH   8   9
HETATM    9  N   UNL     1       3.242  -1.042   1.068  1.00  0.00    -0.203 NA
HETATM   10  H   UNL     1       2.771  -1.889   0.755  1.00  0.00     0.141 HD
BRANCH   9  11
HETATM   11  S   UNL     1       2.785   0.197   0.054  1.00  0.00     0.276 S 
HETATM   12  O   UNL     1       3.091  -0.176  -1.297  1.00  0.00    -0.194 OA
HETATM   13  O   UNL     1       3.153   1.456   0.644  1.00  0.00    -0.194 OA
BRANCH  11  14
HETATM   14  N   UNL     1       1.147   0.023   0.270  1.00  0.00    -0.216 NA
HETATM   15  H   UNL     1       0.655   0.530  -0.468  1.00  0.00     0.137 HD
HETATM   16  H   UNL     1       0.892   0.390   1.189  1.00  0.00     0.137 HD
ENDBRANCH  11  14
ENDBRANCH   9  11
ENDBRANCH   8   9
ENDBRANCH   1   8
BRANCH   6  17
HETATM   17  N   UNL     1       4.698  -6.024   2.407  1.00  0.00    -0.363 N 
HETATM   18  C   UNL     1       4.583  -6.963   3.534  1.00  0.00     0.150 C 
HETATM   19  C   UNL     1       5.066  -8.357   3.099  1.00  0.00     0.187 C 
HETATM   20  O   UNL     1       4.390  -8.812   1.913  1.00  0.00    -0.388 OA
HETATM   21  C   UNL     1       4.623  -7.895   0.834  1.00  0.00     0.187 C 
HETATM   22  C   UNL     1       4.089  -6.491   1.161  1.00  0.00     0.150 C 
ENDBRANCH   6  17
TORSDOF 5
