REMARK  6 active torsions:
REMARK  status: ('A' for Active; 'I' for Inactive)
REMARK    1  A    between atoms: C_2  and  N_5 
REMARK       I    between atoms: N_5  and  C_6 
REMARK    2  A    between atoms: C_6  and  C_8 
REMARK    3  A    between atoms: C_8  and  N_9 
REMARK    4  A    between atoms: C_12  and  C_13 
REMARK    5  A    between atoms: C_13  and  N_14 
REMARK    6  A    between atoms: N_18  and  C_19 
ROOT
HETATM    1  N   UNL     1       6.320  -1.336   3.080  1.00  0.00    -0.256 N 
HETATM    2  C   UNL     1       6.947  -2.441   2.522  1.00  0.00     0.273 A 
HETATM    3  O   UNL     1       6.344  -3.348   1.953  1.00  0.00    -0.266 OA
HETATM    4  C   UNL     1       8.417  -2.498   2.670  1.00  0.00     0.110 A 
HETATM    5  C   UNL     1       9.039  -1.528   3.344  1.00  0.00     0.123 A 
HETATM    6  N   UNL     1       8.360  -0.460   3.887  1.00  0.00    -0.303 N 
HETATM    7  C   UNL     1       6.978  -0.284   3.720  1.00  0.00     0.332 A 
HETATM    8  O   UNL     1       6.377   0.710   4.130  1.00  0.00    -0.246 OA
ENDROOT
BRANCH   1   9
HETATM    9  C   UNL     1       4.877  -1.220   2.903  1.00  0.00     0.239 C 
BRANCH   9  10
HETATM   10  C   UNL     1       4.554  -0.557   1.559  1.00  0.00     0.236 C 
HETATM   11  N   UNL     1       3.196  -0.437   1.313  1.00  0.00    -0.352 N 
HETATM   12  H   UNL     1       2.551  -0.806   2.001  1.00  0.00     0.163 HD
HETATM   13  O   UNL     1       5.428  -0.177   0.785  1.00  0.00    -0.272 OA
BRANCH  11  14
HETATM   14  C   UNL     1       2.617   0.137   0.085  1.00  0.00     0.022 C 
HETATM   15  C   UNL     1       3.023  -0.688  -1.147  1.00  0.00     0.037 C 
HETATM   16  C   UNL     1       3.045   1.603  -0.090  1.00  0.00     0.037 C 
HETATM   17  C   UNL     1       1.080   0.100   0.199  1.00  0.00     0.037 C 
ENDBRANCH  11  14
ENDBRANCH   9  10
ENDBRANCH   1   9
BRANCH   4  18
HETATM   18  C   UNL     1       9.190  -3.675   2.100  1.00  0.00    -0.030 C 
BRANCH  18  19
HETATM   19  N   UNL     1       9.831  -4.653   1.627  1.00  0.00    -0.365 N 
ATOM     20  HN2 UNL     1       9.278  -3.892   2.021  1.00  0.00     0.165 HD
ATOM     21  HN1 UNL     1      10.350  -5.443   1.244  1.00  0.00     0.165 HD
ENDBRANCH  18  19
ENDBRANCH   4  18
BRANCH   6  22
HETATM   22  C   UNL     1       9.145   0.547   4.569  1.00  0.00     0.094 A 
HETATM   23  C   UNL     1       9.999   0.213   5.772  1.00  0.00     0.028 A 
HETATM   24  C   UNL     1       8.774   1.054   5.941  1.00  0.00     0.028 A 
ENDBRANCH   6  22
TORSDOF 6
