REMARK  4 active torsions:
REMARK  status: ('A' for Active; 'I' for Inactive)
REMARK    1  A    between atoms: C_5  and  O_6 
REMARK    2  A    between atoms: C_5  and  C_7 
REMARK    3  A    between atoms: C_7  and  N_8 
REMARK       I    between atoms: N_8  and  C_9 
REMARK       I    between atoms: C_9  and  N_11 
REMARK    4  A    between atoms: N_11  and  C_12 
ROOT
HETATM    1  N   UNL     1       5.166   0.127  -3.853  1.00  0.00    -0.340 N 
HETATM    2  C   UNL     1       5.837  -0.265  -4.973  1.00  0.00     0.322 C 
HETATM    3  O   UNL     1       6.036  -1.438  -5.268  1.00  0.00    -0.247 OA
HETATM    4  N   UNL     1       6.215   0.730  -5.830  1.00  0.00    -0.289 N 
HETATM    5  H   UNL     1       5.221   1.119  -3.629  1.00  0.00     0.164 HD
HETATM    6  H   UNL     1       6.597   0.439  -6.717  1.00  0.00     0.172 HD
ENDROOT
BRANCH   1   7
HETATM    7  C   UNL     1       4.615  -0.763  -2.850  1.00  0.00     0.162 C 
BRANCH   7   8
HETATM    8  C   UNL     1       3.066  -0.662  -2.779  1.00  0.00     0.077 C 
HETATM    9  C   UNL     1       2.552   0.742  -2.419  1.00  0.00     0.070 C 
HETATM   10  C   UNL     1       2.831   1.103  -0.961  1.00  0.00     0.275 C 
HETATM   11  N   UNL     1       2.351   0.106   0.004  1.00  0.00     0.084 N 
HETATM   12  C   UNL     1       0.898   0.153   0.168  1.00  0.00     0.309 C 
HETATM   13  C   UNL     1       2.817  -1.248  -0.325  1.00  0.00     0.275 C 
HETATM   14  C   UNL     1       2.518  -1.672  -1.764  1.00  0.00     0.070 C 
BRANCH   8  15
HETATM   15  O   UNL     1       2.526  -1.004  -4.066  1.00  0.00    -0.388 OA
HETATM   16  H   UNL     1       3.105  -0.580  -4.727  1.00  0.00     0.210 HD
ENDBRANCH   8  15
ENDBRANCH   7   8
ENDBRANCH   1   7
BRANCH   4  17
HETATM   17  C   UNL     1       6.064   2.062  -5.581  1.00  0.00     0.152 A 
HETATM   18  N   UNL     1       5.707   2.615  -4.446  1.00  0.00    -0.340 N 
HETATM   19  C   UNL     1       5.651   3.986  -4.595  1.00  0.00     0.014 A 
ATOM     20  HN  UNL     1       5.502   2.109  -3.585  1.00  0.00     0.167 HD
HETATM   21  C   UNL     1       5.326   4.810  -3.401  1.00  0.00     0.068 C 
HETATM   22  C   UNL     1       5.912   4.436  -5.876  1.00  0.00     0.077 A 
HETATM   23  S   UNL     1       6.339   3.112  -6.888  1.00  0.00    -0.064 SA
ENDBRANCH   4  17
TORSDOF 4
