REMARK  4 active torsions:
REMARK  status: ('A' for Active; 'I' for Inactive)
REMARK    1  A    between atoms: C_2  and  N_3 
REMARK       I    between atoms: N_6  and  C_9 
REMARK       I    between atoms: C_9  and  N_11 
REMARK    2  A    between atoms: N_11  and  C_12 
REMARK    3  A    between atoms: N_16  and  C_17 
REMARK    4  A    between atoms: C_17  and  C_18 
REMARK       I    between atoms: C_18  and  N_20 
ROOT
HETATM    1  C   UNL     1       6.807  -5.706   0.040  1.00  0.00     0.070 A 
HETATM    2  C   UNL     1       6.324  -7.033   0.093  1.00  0.00     0.138 A 
HETATM    3  N   UNL     1       7.310  -7.936   0.079  1.00  0.00    -0.307 N 
ATOM      4  HN  UNL     1       7.234  -8.953   0.106  1.00  0.00     0.186 HD
HETATM    5  N   UNL     1       8.430  -7.185   0.020  1.00  0.00    -0.293 N 
HETATM    6  C   UNL     1       8.174  -5.842   0.030  1.00  0.00     0.141 A 
ENDROOT
BRANCH   1   7
HETATM    7  N   UNL     1       6.146  -4.491   0.011  1.00  0.00    -0.306 N 
HETATM    8  C   UNL     1       4.780  -4.375   0.039  1.00  0.00     0.323 C 
HETATM    9  N   UNL     1       4.264  -3.092   0.014  1.00  0.00    -0.331 N 
HETATM   10  O   UNL     1       4.027  -5.350   0.096  1.00  0.00    -0.247 OA
HETATM   11  C   UNL     1       4.982  -1.815  -0.114  1.00  0.00     0.158 C 
HETATM   12  C   UNL     1       2.812  -2.942   0.160  1.00  0.00     0.158 C 
HETATM   13  C   UNL     1       4.568  -0.820   0.999  1.00  0.00     0.292 C 
HETATM   14  N   UNL     1       3.103  -0.646   1.172  1.00  0.00     0.091 N 
HETATM   15  C   UNL     1       2.493  -1.988   1.322  1.00  0.00     0.292 C 
HETATM   16  H   UNL     1       6.729  -3.675  -0.008  1.00  0.00     0.171 HD
BRANCH  14  17
HETATM   17  C   UNL     1       2.532   0.137   0.063  1.00  0.00     0.268 C 
HETATM   18  C   UNL     1       1.030   0.375   0.180  1.00  0.00     0.037 C 
ENDBRANCH  14  17
ENDBRANCH   1   7
BRANCH   5  19
HETATM   19  C   UNL     1       9.710  -7.872   0.011  1.00  0.00     0.250 C 
BRANCH  19  20
HETATM   20  C   UNL     1      10.782  -7.153  -0.771  1.00  0.00     0.235 C 
HETATM   21  O   UNL     1      11.256  -6.068  -0.446  1.00  0.00    -0.272 OA
HETATM   22  N   UNL     1      11.252  -7.792  -1.885  1.00  0.00    -0.369 N 
HETATM   23  H   UNL     1      10.786  -8.586  -2.305  1.00  0.00     0.159 HD
HETATM   24  H   UNL     1      11.941  -7.299  -2.440  1.00  0.00     0.159 HD
ENDBRANCH  19  20
ENDBRANCH   5  19
TORSDOF 4
