REMARK  6 active torsions:
REMARK  status: ('A' for Active; 'I' for Inactive)
REMARK    1  A    between atoms: C_2  and  C_3 
REMARK    2  A    between atoms: C_3  and  C_5 
REMARK    3  A    between atoms: C_3  and  N_20 
REMARK    4  A    between atoms: C_5  and  N_6 
REMARK       I    between atoms: N_6  and  C_7 
REMARK    5  A    between atoms: C_7  and  C_9 
REMARK    6  A    between atoms: C_9  and  C_10 
ROOT
HETATM    1  N   UNL     1       0.964   2.567   0.357  1.00  0.00    -0.358 N 
HETATM    2  C   UNL     1       0.325   2.249   1.527  1.00  0.00     0.222 C 
HETATM    3  O   UNL     1       0.906   1.917   2.555  1.00  0.00    -0.273 OA
HETATM    4  H   UNL     1       0.446   3.082  -0.350  1.00  0.00     0.162 HD
ENDROOT
BRANCH   2   5
HETATM    5  C   UNL     1      -1.182   2.276   1.416  1.00  0.00     0.149 C 
BRANCH   5   6
HETATM    6  C   UNL     1      -1.639   3.499   2.126  1.00  0.00     0.041 A 
HETATM    7  C   UNL     1      -1.948   3.602   3.432  1.00  0.00     0.018 A 
HETATM    8  C   UNL     1      -1.811   2.454   4.404  1.00  0.00     0.069 C 
HETATM    9  N   UNL     1      -2.384   4.770   4.013  1.00  0.00    -0.349 N 
HETATM   10  C   UNL     1      -2.483   5.816   3.264  1.00  0.00     0.080 A 
ATOM     11  HN  UNL     1      -2.621   4.808   5.004  1.00  0.00     0.167 HD
HETATM   12  C   UNL     1      -2.966   7.116   3.829  1.00  0.00     0.089 C 
HETATM   13  N   UNL     1      -2.169   5.833   1.938  1.00  0.00    -0.313 N 
HETATM   14  C   UNL     1      -1.700   4.728   1.303  1.00  0.00     0.255 A 
HETATM   15  H   UNL     1      -2.216   6.682   1.397  1.00  0.00     0.170 HD
HETATM   16  O   UNL     1      -1.339   4.745   0.131  1.00  0.00    -0.268 OA
ENDBRANCH   5   6
ENDBRANCH   2   5
BRANCH   1  17
HETATM   17  C   UNL     1       2.388   2.375   0.183  1.00  0.00     0.164 C 
BRANCH  17  18
HETATM   18  C   UNL     1       2.767   1.154  -0.742  1.00  0.00     0.171 C 
HETATM   19  C   UNL     1       1.984   1.322  -2.064  1.00  0.00     0.051 C 
BRANCH  18  20
HETATM   20  C   UNL     1       2.362  -0.210  -0.061  1.00  0.00     0.038 C 
HETATM   21  C   UNL     1       0.899  -0.565   0.192  1.00  0.00     0.007 C 
ENDBRANCH  18  20
BRANCH  18  22
HETATM   22  N   UNL     1       4.266   1.172  -0.909  1.00  0.00     0.103 N 
HETATM   23  C   UNL     1       4.883   2.334  -1.584  1.00  0.00     0.299 C 
HETATM   24  C   UNL     1       4.969   2.223  -3.118  1.00  0.00     0.198 C 
HETATM   25  O   UNL     1       5.581   1.003  -3.549  1.00  0.00    -0.388 OA
HETATM   26  C   UNL     1       4.959  -0.142  -2.954  1.00  0.00     0.198 C 
HETATM   27  C   UNL     1       4.951  -0.033  -1.424  1.00  0.00     0.299 C 
ENDBRANCH  18  22
ENDBRANCH  17  18
ENDBRANCH   1  17
TORSDOF 6
