REMARK  10 active torsions:
REMARK  status: ('A' for Active; 'I' for Inactive)
REMARK    1  A    between atoms: N_2  and  C_15 
REMARK    2  A    between atoms: C_6  and  N_8 
REMARK    3  A    between atoms: N_8  and  C_14 
REMARK    4  A    between atoms: N_8  and  C_21 
REMARK    5  A    between atoms: C_9  and  C_14 
REMARK       I    between atoms: C_9  and  N_18 
REMARK    6  A    between atoms: C_15  and  C_16 
REMARK    7  A    between atoms: C_16  and  C_22 
REMARK    8  A    between atoms: C_21  and  C_31 
REMARK    9  A    between atoms: C_22  and  O_23 
REMARK   10  A    between atoms: O_26  and  C_31 
ROOT
HETATM    1  C   UNL     1       0.264  -0.474   1.021  1.00  0.00     0.122 C 
HETATM    2  N   UNL     1       1.282   1.471   0.750  1.00  0.00    -0.326 N 
HETATM    3  C   UNL     1       0.032   0.874   0.744  1.00  0.00     0.140 C 
HETATM    4  N   UNL     1       1.592  -0.646   1.377  1.00  0.00    -0.346 N 
ATOM      5  HN  UNL     1       2.046  -1.514   1.661  1.00  0.00     0.167 HD
HETATM    6  C   UNL     1      -0.840  -1.368   0.874  1.00  0.00     0.136 C 
HETATM    7  C   UNL     1       2.147   0.545   1.273  1.00  0.00     0.185 C 
HETATM    8  N   UNL     1      -1.125   1.458   0.406  1.00  0.00    -0.336 N 
ATOM      9  HN  UNL     1      -1.231   2.442   0.159  1.00  0.00     0.168 HD
HETATM   10  N   UNL     1      -2.054  -0.768   0.657  1.00  0.00    -0.337 N 
ATOM     11  HN  UNL     1      -2.905  -1.330   0.660  1.00  0.00     0.168 HD
HETATM   12  C   UNL     1      -2.128   0.562   0.439  1.00  0.00     0.183 C 
ENDROOT
BRANCH   6  13
HETATM   13  N   UNL     1      -0.811  -2.778   0.816  1.00  0.00    -0.355 N 
BRANCH  13  14
HETATM   14  C   UNL     1      -2.003  -3.423   1.405  1.00  0.00     0.227 C 
BRANCH  14  15
HETATM   15  C   UNL     1      -3.257  -3.741   0.542  1.00  0.00     0.236 C 
HETATM   16  N   UNL     1      -3.354  -3.538  -0.826  1.00  0.00    -0.359 N 
HETATM   17  C   UNL     1      -4.628  -3.867  -1.446  1.00  0.00     0.152 C 
HETATM   18  C   UNL     1      -2.300  -3.104  -1.728  1.00  0.00     0.152 C 
HETATM   19  O   UNL     1      -4.215  -4.250   1.149  1.00  0.00    -0.272 OA
ENDBRANCH  14  15
ENDBRANCH  13  14
BRANCH  13  20
HETATM   20  C   UNL     1       0.485  -3.465   0.979  1.00  0.00     0.151 C 
BRANCH  20  21
HETATM   21  C   UNL     1       0.525  -4.864   0.320  1.00  0.00     0.186 C 
BRANCH  21  22
HETATM   22  O   UNL     1       0.503  -4.752  -1.108  1.00  0.00    -0.394 OA
HETATM   23  C   UNL     1       0.484  -6.024  -1.744  1.00  0.00     0.201 C 
ENDBRANCH  21  22
ENDBRANCH  20  21
ENDBRANCH  13  20
ENDBRANCH   6  13
BRANCH   2  24
HETATM   24  C   UNL     1       1.647   2.794   0.210  1.00  0.00     0.143 C 
BRANCH  24  25
HETATM   25  C   UNL     1       2.090   2.778  -1.304  1.00  0.00     0.001 C 
HETATM   26  C   UNL     1       3.460   2.063  -1.446  1.00  0.00     0.039 C 
HETATM   27  C   UNL     1       4.619   2.968  -1.023  1.00  0.00     0.168 C 
HETATM   28  O   UNL     1       4.675   4.095  -1.886  1.00  0.00    -0.391 OA
HETATM   29  C   UNL     1       3.544   4.941  -1.726  1.00  0.00     0.168 C 
HETATM   30  C   UNL     1       2.238   4.194  -1.960  1.00  0.00     0.039 C 
BRANCH  25  31
HETATM   31  C   UNL     1       0.981   2.077  -2.134  1.00  0.00     0.175 C 
BRANCH  31  32
HETATM   32  O   UNL     1      -0.247   2.795  -2.010  1.00  0.00    -0.400 OA
HETATM   33  H   UNL     1      -0.701   2.485  -1.199  1.00  0.00     0.209 HD
ENDBRANCH  31  32
ENDBRANCH  25  31
ENDBRANCH  24  25
ENDBRANCH   2  24
TORSDOF 10
