REMARK  4 active torsions:
REMARK  status: ('A' for Active; 'I' for Inactive)
REMARK    1  A    between atoms: N_7  and  C_8 
REMARK    2  A    between atoms: C_8  and  C_9 
REMARK    3  A    between atoms: C_9  and  O_10 
REMARK    4  A    between atoms: C_9  and  C_11 
ROOT
HETATM    1  C   UNL     1       5.336  -2.416  -0.042  1.00  0.00     0.189 C 
ENDROOT
BRANCH   1   2
HETATM    2  N   UNL     1       4.579  -1.171   0.104  1.00  0.00    -0.255 N 
HETATM    3  C   UNL     1       4.196  -0.478  -1.035  1.00  0.00     0.262 A 
HETATM    4  C   UNL     1       3.354   0.717  -0.816  1.00  0.00     0.078 A 
HETATM    5  O   UNL     1       4.500  -0.805  -2.182  1.00  0.00    -0.267 OA
HETATM    6  C   UNL     1       2.965   1.062   0.411  1.00  0.00     0.031 A 
HETATM    7  C   UNL     1       3.432   0.210   1.525  1.00  0.00     0.022 A 
HETATM    8  C   UNL     1       3.008   0.597   2.920  1.00  0.00     0.069 C 
HETATM    9  N   UNL     1       4.188  -0.834   1.384  1.00  0.00    -0.300 N 
ATOM     10  HN  UNL     1       4.483  -1.386   2.189  1.00  0.00     0.187 HD
ENDBRANCH   1   2
BRANCH   1  11
HETATM   11  C   UNL     1       4.406  -3.632  -0.243  1.00  0.00     0.171 C 
BRANCH  11  12
HETATM   12  O   UNL     1       3.559  -3.500  -1.394  1.00  0.00    -0.389 OA
HETATM   13  H   UNL     1       4.000  -2.903  -2.028  1.00  0.00     0.210 HD
ENDBRANCH  11  12
BRANCH  11  14
HETATM   14  C   UNL     1       5.137  -4.948  -0.416  1.00  0.00    -0.026 A 
HETATM   15  C   UNL     1       6.034  -5.151  -1.480  1.00  0.00     0.010 A 
HETATM   16  C   UNL     1       6.635  -6.396  -1.683  1.00  0.00     0.002 A 
HETATM   17  C   UNL     1       6.348  -7.457  -0.826  1.00  0.00     0.024 A 
HETATM   18  C   UNL     1       5.468  -7.264   0.236  1.00  0.00     0.034 A 
HETATM   19 CL   UNL     1       5.100  -8.581   1.285  1.00  0.00    -0.084 Cl
HETATM   20  C   UNL     1       4.865  -6.023   0.445  1.00  0.00     0.033 A 
ENDBRANCH  11  14
ENDBRANCH   1  11
TORSDOF 4
