REMARK  2 active torsions:
REMARK  status: ('A' for Active; 'I' for Inactive)
REMARK    1  A    between atoms: N_1  and  C_2 
REMARK    2  A    between atoms: C_8  and  N_9 
ROOT
HETATM    1  C   UNL     1       3.320  -0.685   1.269  1.00  0.00     0.035 A 
HETATM    2  C   UNL     1       3.954   0.569   1.342  1.00  0.00     0.042 A 
HETATM    3  C   UNL     1       4.217   1.274   0.182  1.00  0.00     0.089 A 
HETATM    4  N   UNL     1       3.945   0.802  -1.042  1.00  0.00    -0.373 N 
ATOM      5  HN  UNL     1       4.135   1.343  -1.886  1.00  0.00     0.164 HD
HETATM    6  C   UNL     1       3.402  -0.440  -1.090  1.00  0.00     0.118 A 
HETATM    7  C   UNL     1       3.053  -1.257   0.004  1.00  0.00     0.067 A 
ENDROOT
BRANCH   7   8
HETATM    8  N   UNL     1       2.526  -2.523  -0.242  1.00  0.00    -0.374 N 
HETATM    9  C   UNL     1       2.579  -3.645   0.708  1.00  0.00     0.149 C 
HETATM   10  C   UNL     1       2.540  -4.980  -0.060  1.00  0.00     0.187 C 
HETATM   11  O   UNL     1       1.411  -5.062  -0.945  1.00  0.00    -0.388 OA
HETATM   12  C   UNL     1       1.449  -3.985  -1.896  1.00  0.00     0.187 C 
HETATM   13  C   UNL     1       1.391  -2.625  -1.185  1.00  0.00     0.149 C 
ENDBRANCH   7   8
BRANCH   1  14
HETATM   14  N   UNL     1       3.138  -1.373   2.491  1.00  0.00    -0.301 NA
HETATM   15  H   UNL     1       3.098  -0.758   3.297  1.00  0.00     0.124 HD
HETATM   16  H   UNL     1       2.328  -1.979   2.457  1.00  0.00     0.124 HD
ENDBRANCH   1  14
TORSDOF 2
