REMARK  5 active torsions:
REMARK  status: ('A' for Active; 'I' for Inactive)
REMARK    1  A    between atoms: O_2  and  C_3 
REMARK    2  A    between atoms: C_9  and  N_10 
REMARK       I    between atoms: N_10  and  C_11 
REMARK       I    between atoms: C_11  and  N_13 
REMARK    3  A    between atoms: N_13  and  C_14 
REMARK    4  A    between atoms: C_14  and  C_15 
REMARK    5  A    between atoms: C_15  and  N_16 
REMARK       I    between atoms: N_19  and  C_22 
ROOT
HETATM    1  N   UNL     1       4.849  -0.293   0.879  1.00  0.00    -0.305 N 
HETATM    2  C   UNL     1       4.335  -1.500   0.485  1.00  0.00     0.320 C 
HETATM    3  O   UNL     1       3.202  -1.667   0.034  1.00  0.00    -0.247 OA
HETATM    4  N   UNL     1       5.191  -2.579   0.659  1.00  0.00    -0.341 N 
HETATM    5  H   UNL     1       5.836  -0.219   1.081  1.00  0.00     0.171 HD
HETATM    6  H   UNL     1       6.174  -2.400   0.523  1.00  0.00     0.164 HD
ENDROOT
BRANCH   1   7
HETATM    7  C   UNL     1       4.121   0.931   0.882  1.00  0.00     0.087 A 
HETATM    8  C   UNL     1       4.787   2.155   1.031  1.00  0.00     0.169 A 
HETATM    9  N   UNL     1       4.171   3.362   1.051  1.00  0.00    -0.345 N 
HETATM   10  C   UNL     1       2.830   3.369   0.901  1.00  0.00     0.090 A 
ATOM     11  HN  UNL     1       4.698   4.227   1.174  1.00  0.00     0.167 HD
HETATM   12  C   UNL     1       2.074   2.226   0.743  1.00  0.00     0.019 A 
HETATM   13  C   UNL     1       2.731   0.997   0.744  1.00  0.00     0.035 A 
BRANCH   8  14
HETATM   14  O   UNL     1       6.171   2.115   1.129  1.00  0.00    -0.339 OA
HETATM   15  C   UNL     1       6.749   3.420   1.121  1.00  0.00     0.211 C 
ENDBRANCH   8  14
ENDBRANCH   1   7
BRANCH   4  16
HETATM   16  C   UNL     1       4.637  -3.830   0.168  1.00  0.00     0.154 C 
BRANCH  16  17
HETATM   17  C   UNL     1       5.405  -5.141   0.403  1.00  0.00     0.292 C 
BRANCH  17  18
HETATM   18  N   UNL     1       4.657  -6.265  -0.207  1.00  0.00     0.093 N 
HETATM   19  C   UNL     1       3.337  -6.522   0.419  1.00  0.00     0.292 C 
HETATM   20  C   UNL     1       3.431  -7.199   1.795  1.00  0.00     0.156 C 
HETATM   21  N   UNL     1       4.121  -8.479   1.657  1.00  0.00    -0.349 N 
HETATM   22  C   UNL     1       5.456  -8.353   1.055  1.00  0.00     0.156 C 
HETATM   23  C   UNL     1       3.578  -9.734   1.849  1.00  0.00     0.215 C 
HETATM   24  C   UNL     1       5.421  -7.532  -0.258  1.00  0.00     0.292 C 
HETATM   25  O   UNL     1       4.221 -10.761   1.615  1.00  0.00    -0.274 OA
HETATM   26  C   UNL     1       2.163  -9.880   2.363  1.00  0.00     0.117 C 
ENDBRANCH  17  18
ENDBRANCH  16  17
ENDBRANCH   4  16
TORSDOF 5
