REMARK  6 active torsions:
REMARK  status: ('A' for Active; 'I' for Inactive)
REMARK    1  A    between atoms: C_2  and  C_3 
REMARK    2  A    between atoms: C_2  and  N_19 
REMARK    3  A    between atoms: C_3  and  N_4 
REMARK       I    between atoms: N_4  and  C_5 
REMARK    4  A    between atoms: C_5  and  C_7 
REMARK    5  A    between atoms: C_7  and  N_8 
REMARK    6  A    between atoms: C_10  and  C_15 
ROOT
HETATM    1  N   UNL     1       2.239   2.344   1.136  1.00  0.00    -0.358 N 
HETATM    2  C   UNL     1       2.482   3.270   2.123  1.00  0.00     0.235 C 
HETATM    3  O   UNL     1       2.987   2.966   3.203  1.00  0.00    -0.272 OA
HETATM    4  H   UNL     1       1.911   2.629   0.216  1.00  0.00     0.162 HD
ENDROOT
BRANCH   2   5
HETATM    5  C   UNL     1       1.982   4.680   1.839  1.00  0.00     0.234 C 
BRANCH   5   6
HETATM    6  N   UNL     1       0.630   4.877   2.364  1.00  0.00    -0.315 N 
HETATM    7  C   UNL     1       0.412   4.797   3.733  1.00  0.00     0.110 C 
HETATM    8  C   UNL     1      -0.816   4.937   4.265  1.00  0.00     0.063 C 
HETATM    9  C   UNL     1      -1.913   5.288   3.382  1.00  0.00     0.023 C 
HETATM   10  C   UNL     1      -1.743   5.329   2.053  1.00  0.00     0.075 C 
HETATM   11  C   UNL     1      -0.415   5.033   1.457  1.00  0.00     0.247 C 
HETATM   12  O   UNL     1      -0.300   4.966   0.236  1.00  0.00    -0.268 OA
BRANCH   8  13
HETATM   13  C   UNL     1      -1.078   4.713   5.728  1.00  0.00     0.418 C 
HETATM   14  F   UNL     1      -2.379   4.919   6.068  1.00  0.00    -0.166 F 
HETATM   15  F   UNL     1      -0.781   3.440   6.098  1.00  0.00    -0.166 F 
HETATM   16  F   UNL     1      -0.335   5.535   6.509  1.00  0.00    -0.166 F 
ENDBRANCH   8  13
ENDBRANCH   5   6
ENDBRANCH   2   5
BRANCH   1  17
HETATM   17  C   UNL     1       2.640   0.967   1.317  1.00  0.00     0.158 C 
BRANCH  17  18
HETATM   18  C   UNL     1       2.231   0.056   0.134  1.00  0.00     0.236 C 
HETATM   19  C   UNL     1       2.629  -1.382   0.484  1.00  0.00     0.044 C 
BRANCH  18  20
HETATM   20  N   UNL     1       2.645   0.592  -1.182  1.00  0.00     0.098 N 
HETATM   21  C   UNL     1       2.176  -0.186  -2.345  1.00  0.00     0.299 C 
HETATM   22  C   UNL     1       3.119  -1.322  -2.785  1.00  0.00     0.198 C 
HETATM   23  O   UNL     1       4.450  -0.845  -3.006  1.00  0.00    -0.388 OA
HETATM   24  C   UNL     1       4.965  -0.212  -1.830  1.00  0.00     0.198 C 
HETATM   25  C   UNL     1       4.063   0.944  -1.374  1.00  0.00     0.299 C 
ENDBRANCH  18  20
ENDBRANCH  17  18
ENDBRANCH   1  17
TORSDOF 6
