REMARK  5 active torsions:
REMARK  status: ('A' for Active; 'I' for Inactive)
REMARK    1  A    between atoms: S_2  and  C_5 
REMARK    2  A    between atoms: C_8  and  N_9 
REMARK       I    between atoms: N_9  and  C_10 
REMARK       I    between atoms: C_10  and  N_12 
REMARK    3  A    between atoms: N_12  and  C_13 
REMARK    4  A    between atoms: C_13  and  C_14 
REMARK    5  A    between atoms: C_13  and  C_17 
ROOT
HETATM    1  N   UNL     1       3.842   3.513  -4.761  1.00  0.00    -0.308 N 
HETATM    2  C   UNL     1       4.191   3.033  -6.005  1.00  0.00     0.321 C 
HETATM    3  O   UNL     1       4.644   1.918  -6.227  1.00  0.00    -0.247 OA
HETATM    4  N   UNL     1       4.001   3.945  -7.012  1.00  0.00    -0.338 N 
HETATM    5  H   UNL     1       3.713   4.510  -4.683  1.00  0.00     0.170 HD
HETATM    6  H   UNL     1       3.514   4.806  -6.834  1.00  0.00     0.164 HD
ENDROOT
BRANCH   1   7
HETATM    7  C   UNL     1       3.938   2.767  -3.558  1.00  0.00     0.051 A 
HETATM    8  C   UNL     1       4.037   1.373  -3.525  1.00  0.00     0.034 A 
HETATM    9  C   UNL     1       4.226   0.705  -2.319  1.00  0.00     0.044 A 
HETATM   10  C   UNL     1       4.289   1.471  -1.172  1.00  0.00     0.128 A 
HETATM   11  N   UNL     1       4.140   2.821  -1.126  1.00  0.00    -0.355 N 
HETATM   12  C   UNL     1       3.960   3.429  -2.327  1.00  0.00     0.118 A 
ATOM     13  HN  UNL     1       4.162   3.342  -0.249  1.00  0.00     0.166 HD
BRANCH  10  14
HETATM   14  S   UNL     1       4.646   0.679   0.378  1.00  0.00     0.187 S 
HETATM   15  C   UNL     1       4.685   1.979   1.576  1.00  0.00     0.168 C 
HETATM   16  O   UNL     1       5.992   0.132   0.279  1.00  0.00    -0.222 OA
HETATM   17  O   UNL     1       3.519  -0.183   0.690  1.00  0.00    -0.222 OA
ENDBRANCH  10  14
ENDBRANCH   1   7
BRANCH   4  18
HETATM   18  C   UNL     1       4.209   3.559  -8.398  1.00  0.00     0.094 C 
BRANCH  18  19
HETATM   19  C   UNL     1       2.882   3.601  -9.119  1.00  0.00     0.009 A 
HETATM   20  C   UNL     1       1.731   2.706  -8.725  1.00  0.00     0.007 A 
HETATM   21  C   UNL     1       2.482   2.437  -9.996  1.00  0.00     0.007 A 
ENDBRANCH  18  19
BRANCH  18  22
HETATM   22  C   UNL     1       5.215   4.440  -9.098  1.00  0.00     0.009 A 
HETATM   23  C   UNL     1       6.619   4.599  -8.563  1.00  0.00     0.007 A 
HETATM   24  C   UNL     1       5.685   5.779  -8.577  1.00  0.00     0.007 A 
ENDBRANCH  18  22
ENDBRANCH   4  18
TORSDOF 5
