REMARK  2 active torsions:
REMARK  status: ('A' for Active; 'I' for Inactive)
REMARK    1  A    between atoms: C_7  and  N_8 
REMARK       I    between atoms: N_8  and  C_9 
REMARK       I    between atoms: C_9  and  N_11 
REMARK    2  A    between atoms: N_11  and  C_12 
ROOT
HETATM    1  N   UNL     1       6.432   0.752   0.184  1.00  0.00    -0.288 N 
HETATM    2  C   UNL     1       7.526  -0.037  -0.060  1.00  0.00     0.322 C 
HETATM    3  O   UNL     1       7.517  -1.192  -0.467  1.00  0.00    -0.247 OA
HETATM    4  N   UNL     1       8.710   0.604   0.257  1.00  0.00    -0.330 N 
HETATM    5  H   UNL     1       6.534   1.620   0.680  1.00  0.00     0.172 HD
HETATM    6  H   UNL     1       8.733   1.584   0.000  1.00  0.00     0.165 HD
ENDROOT
BRANCH   1   7
HETATM    7  C   UNL     1       5.165   0.255   0.007  1.00  0.00     0.169 A 
HETATM    8  N   UNL     1       4.771  -0.862  -0.555  1.00  0.00    -0.279 N 
HETATM    9  N   UNL     1       3.404  -1.031  -0.475  1.00  0.00    -0.296 N 
ATOM     10  HN  UNL     1       5.402  -1.529  -1.000  1.00  0.00     0.189 HD
HETATM   11  C   UNL     1       2.820  -0.031   0.150  1.00  0.00     0.066 A 
ATOM     12  HN  UNL     1       2.905  -1.835  -0.855  1.00  0.00     0.187 HD
HETATM   13  C   UNL     1       1.367   0.041   0.440  1.00  0.00     0.078 C 
HETATM   14  S   UNL     1       3.901   1.219   0.637  1.00  0.00    -0.038 SA
ENDBRANCH   1   7
BRANCH   4  15
HETATM   15  C   UNL     1       9.973  -0.107   0.015  1.00  0.00     0.178 C 
HETATM   16  C   UNL     1      10.213  -1.264   0.995  1.00  0.00     0.036 C 
HETATM   17  C   UNL     1      10.829  -0.797   2.307  1.00  0.00     0.022 C 
HETATM   18  C   UNL     1      12.132  -0.076   2.020  1.00  0.00     0.122 C 
HETATM   19  N   UNL     1      11.953   0.996   1.073  1.00  0.00    -0.359 N 
HETATM   20  C   UNL     1      11.107   0.935  -0.001  1.00  0.00     0.240 C 
HETATM   21  H   UNL     1      12.683   1.692   0.978  1.00  0.00     0.162 HD
HETATM   22  O   UNL     1      11.168   1.812  -0.864  1.00  0.00    -0.271 OA
ENDBRANCH   4  15
TORSDOF 2
