REMARK  4 active torsions:
REMARK  status: ('A' for Active; 'I' for Inactive)
REMARK    1  A    between atoms: C_9  and  C_10 
REMARK    2  A    between atoms: C_10  and  C_11 
REMARK       I    between atoms: C_11  and  N_13 
REMARK    3  A    between atoms: N_13  and  C_14 
REMARK    4  A    between atoms: C_14  and  C_15 
ROOT
HETATM    1  C   UNL     1       3.185   2.517  -0.120  1.00  0.00     0.145 C 
ENDROOT
BRANCH   1   2
HETATM    2  C   UNL     1       3.502   1.051  -0.113  1.00  0.00    -0.002 A 
HETATM    3  C   UNL     1       2.772  -0.053   0.425  1.00  0.00     0.030 A 
HETATM    4  C   UNL     1       1.470  -0.082   1.142  1.00  0.00     0.070 C 
HETATM    5  N   UNL     1       3.416  -1.210   0.238  1.00  0.00    -0.303 N 
HETATM    6  N   UNL     1       4.559  -0.869  -0.369  1.00  0.00    -0.300 N 
ATOM      7  HN  UNL     1       3.105  -2.145   0.500  1.00  0.00     0.186 HD
HETATM    8  C   UNL     1       5.507  -1.908  -0.695  1.00  0.00     0.177 C 
HETATM    9  C   UNL     1       4.675   0.477  -0.592  1.00  0.00     0.033 A 
HETATM   10  C   UNL     1       5.873   1.110  -1.205  1.00  0.00     0.070 C 
ENDBRANCH   1   2
BRANCH   1  11
HETATM   11  C   UNL     1       1.708   2.861  -0.058  1.00  0.00     0.222 C 
HETATM   12  O   UNL     1       1.108   2.905   1.016  1.00  0.00    -0.273 OA
HETATM   13  N   UNL     1       1.076   3.130  -1.263  1.00  0.00    -0.358 N 
HETATM   14  H   UNL     1       1.635   3.413  -2.056  1.00  0.00     0.162 HD
BRANCH  13  15
HETATM   15  C   UNL     1      -0.302   3.594  -1.200  1.00  0.00     0.154 C 
BRANCH  15  16
HETATM   16  C   UNL     1      -1.040   3.809  -2.520  1.00  0.00     0.139 C 
HETATM   17  C   UNL     1      -1.110   2.640  -3.486  1.00  0.00     0.035 C 
HETATM   18  C   UNL     1      -1.375   3.314  -4.824  1.00  0.00     0.029 C 
HETATM   19  C   UNL     1      -1.163   4.796  -4.562  1.00  0.00     0.168 C 
HETATM   20  O   UNL     1      -0.475   4.873  -3.304  1.00  0.00    -0.384 OA
ENDBRANCH  15  16
ENDBRANCH  13  15
ENDBRANCH   1  11
TORSDOF 4
