REMARK  5 active torsions:
REMARK  status: ('A' for Active; 'I' for Inactive)
REMARK    1  A    between atoms: C_2  and  C_3 
REMARK    2  A    between atoms: C_8  and  N_9 
REMARK       I    between atoms: N_9  and  C_10 
REMARK       I    between atoms: C_10  and  N_12 
REMARK    3  A    between atoms: N_12  and  C_13 
REMARK    4  A    between atoms: N_17  and  C_18 
REMARK    5  A    between atoms: C_18  and  C_19 
REMARK       I    between atoms: C_19  and  N_21 
ROOT
HETATM    1  N   UNL     1       2.659  -2.507   1.652  1.00  0.00    -0.338 N 
HETATM    2  C   UNL     1       1.771  -2.642   2.702  1.00  0.00     0.321 C 
HETATM    3  O   UNL     1       1.758  -1.864   3.648  1.00  0.00    -0.247 OA
HETATM    4  N   UNL     1       0.973  -3.755   2.572  1.00  0.00    -0.306 N 
HETATM    5  H   UNL     1       2.346  -2.842   0.753  1.00  0.00     0.164 HD
HETATM    6  H   UNL     1       1.227  -4.452   1.888  1.00  0.00     0.171 HD
ENDROOT
BRANCH   4   7
HETATM    7  C   UNL     1       0.012  -4.100   3.509  1.00  0.00     0.070 A 
HETATM    8  C   UNL     1      -0.516  -3.372   4.597  1.00  0.00     0.138 A 
HETATM    9  N   UNL     1      -1.431  -4.063   5.281  1.00  0.00    -0.307 N 
HETATM   10  N   UNL     1      -1.488  -5.249   4.634  1.00  0.00    -0.293 N 
ATOM     11  HN  UNL     1      -1.962  -3.766   6.099  1.00  0.00     0.186 HD
HETATM   12  C   UNL     1      -0.656  -5.303   3.548  1.00  0.00     0.141 A 
BRANCH  10  13
HETATM   13  C   UNL     1      -2.459  -6.224   5.100  1.00  0.00     0.250 C 
BRANCH  13  14
HETATM   14  C   UNL     1      -2.016  -7.660   4.963  1.00  0.00     0.235 C 
HETATM   15  O   UNL     1      -1.766  -8.203   3.891  1.00  0.00    -0.272 OA
HETATM   16  N   UNL     1      -1.948  -8.385   6.122  1.00  0.00    -0.369 N 
HETATM   17  H   UNL     1      -2.022  -7.975   7.043  1.00  0.00     0.159 HD
HETATM   18  H   UNL     1      -1.635  -9.346   6.052  1.00  0.00     0.159 HD
ENDBRANCH  13  14
ENDBRANCH  10  13
ENDBRANCH   4   7
BRANCH   1  19
HETATM   19  C   UNL     1       3.646  -1.434   1.677  1.00  0.00     0.090 C 
HETATM   20  C   UNL     1       3.070  -0.042   1.296  1.00  0.00     0.008 C 
HETATM   21  C   UNL     1       4.188   1.004   1.485  1.00  0.00     0.007 C 
HETATM   22  C   UNL     1       5.438   0.678   0.668  1.00  0.00     0.001 C 
HETATM   23  C   UNL     1       5.964  -0.722   0.977  1.00  0.00     0.002 C 
HETATM   24  C   UNL     1       4.882  -1.795   0.845  1.00  0.00     0.026 C 
BRANCH  20  25
HETATM   25  C   UNL     1       2.450  -0.006  -0.121  1.00  0.00     0.002 C 
HETATM   26  C   UNL     1       1.804   1.331  -0.467  1.00  0.00     0.005 C 
ENDBRANCH  20  25
ENDBRANCH   1  19
TORSDOF 5
