REMARK  4 active torsions:
REMARK  status: ('A' for Active; 'I' for Inactive)
REMARK    1  A    between atoms: O_2  and  C_3 
REMARK    2  A    between atoms: C_3  and  C_4 
REMARK    3  A    between atoms: C_4  and  N_5 
REMARK       I    between atoms: N_5  and  C_6 
REMARK       I    between atoms: C_6  and  N_8 
REMARK    4  A    between atoms: N_8  and  C_9 
ROOT
HETATM    1  N   UNL     1       5.052   1.368   2.090  1.00  0.00    -0.340 N 
HETATM    2  C   UNL     1       6.220   1.009   2.685  1.00  0.00     0.334 C 
HETATM    3  O   UNL     1       6.739  -0.096   2.538  1.00  0.00    -0.247 OA
HETATM    4  N   UNL     1       6.767   1.900   3.562  1.00  0.00    -0.140 N 
HETATM    5  H   UNL     1       4.847   2.368   2.050  1.00  0.00     0.164 HD
HETATM    6  H   UNL     1       7.545   1.537   4.089  1.00  0.00     0.189 HD
ENDROOT
BRANCH   1   7
HETATM    7  C   UNL     1       4.292   0.469   1.254  1.00  0.00     0.162 C 
BRANCH   7   8
HETATM    8  C   UNL     1       3.023   1.203   0.797  1.00  0.00     0.076 C 
HETATM    9  C   UNL     1       1.991   0.267   0.102  1.00  0.00     0.040 C 
HETATM   10  C   UNL     1       1.243   0.137   1.440  1.00  0.00     0.006 C 
HETATM   11  C   UNL     1       1.948   1.413   1.914  1.00  0.00     0.040 C 
BRANCH   8  12
HETATM   12  O   UNL     1       3.332   2.443   0.096  1.00  0.00    -0.383 OA
HETATM   13  C   UNL     1       4.099   2.364  -1.097  1.00  0.00     0.202 C 
ENDBRANCH   8  12
ENDBRANCH   7   8
ENDBRANCH   1   7
BRANCH   4  14
HETATM   14  C   UNL     1       6.300   3.172   3.779  1.00  0.00     0.703 A 
HETATM   15  N   UNL     1       5.443   3.843   3.040  1.00  0.00    -0.185 N 
HETATM   16  C   UNL     1       5.347   5.048   3.667  1.00  0.00     0.215 A 
ATOM     17  HN  UNL     1       4.963   3.533   2.195  1.00  0.00     0.185 HD
HETATM   18  N   UNL     1       6.074   5.167   4.780  1.00  0.00    -0.280 N 
HETATM   19  N   UNL     1       6.652   3.954   4.852  1.00  0.00    -0.127 N 
ATOM     20  HN  UNL     1       6.167   5.965   5.409  1.00  0.00     0.188 HD
HETATM   21  C   UNL     1       7.396   3.586   6.029  1.00  0.00     0.197 C 
ENDBRANCH   4  14
TORSDOF 4
