REMARK  4 active torsions:
REMARK  status: ('A' for Active; 'I' for Inactive)
REMARK       I    between atoms: C_2  and  N_3 
REMARK       I    between atoms: C_2  and  N_16 
REMARK    1  A    between atoms: N_3  and  C_4 
REMARK    2  A    between atoms: C_4  and  C_5 
REMARK    3  A    between atoms: C_5  and  N_10 
REMARK    4  A    between atoms: N_16  and  C_17 
ROOT
HETATM    1  O   UNL     1       0.384   0.782   3.525  1.00  0.00    -0.247 OA
HETATM    2  C   UNL     1      -0.204   1.575   2.808  1.00  0.00     0.320 C 
HETATM    3  N   UNL     1       0.447   2.294   1.818  1.00  0.00    -0.340 N 
HETATM    4  N   UNL     1      -1.540   1.933   2.893  1.00  0.00    -0.309 N 
HETATM    5  H   UNL     1      -0.125   2.704   1.096  1.00  0.00     0.164 HD
HETATM    6  H   UNL     1      -1.881   2.571   2.191  1.00  0.00     0.170 HD
ENDROOT
BRANCH   3   7
HETATM    7  C   UNL     1       1.888   2.137   1.530  1.00  0.00     0.167 C 
BRANCH   7   8
HETATM    8  C   UNL     1       2.868   3.187   2.180  1.00  0.00     0.184 C 
HETATM    9  C   UNL     1       2.899   2.927   3.713  1.00  0.00     0.054 C 
HETATM   10  C   UNL     1       3.472   4.140   4.432  1.00  0.00     0.076 C 
HETATM   11  S   UNL     1       2.982   5.585   3.454  1.00  0.00    -0.166 SA
HETATM   12  C   UNL     1       2.232   4.608   2.117  1.00  0.00     0.117 C 
BRANCH   8  13
HETATM   13  N   UNL     1       4.285   3.233   1.654  1.00  0.00     0.104 N 
HETATM   14  C   UNL     1       4.518   3.710   0.276  1.00  0.00     0.299 C 
HETATM   15  C   UNL     1       4.282   2.648  -0.807  1.00  0.00     0.198 C 
HETATM   16  O   UNL     1       4.951   1.408  -0.551  1.00  0.00    -0.388 OA
HETATM   17  C   UNL     1       4.862   0.945   0.801  1.00  0.00     0.198 C 
HETATM   18  C   UNL     1       5.144   2.048   1.826  1.00  0.00     0.299 C 
ENDBRANCH   8  13
ENDBRANCH   7   8
ENDBRANCH   3   7
BRANCH   4  19
HETATM   19  C   UNL     1      -2.446   1.619   3.936  1.00  0.00     0.038 A 
HETATM   20  C   UNL     1      -2.157   0.763   4.995  1.00  0.00     0.046 A 
HETATM   21  C   UNL     1      -3.093   0.621   6.009  1.00  0.00     0.090 A 
HETATM   22  N   UNL     1      -4.286   1.253   6.034  1.00  0.00    -0.375 N 
HETATM   23  C   UNL     1      -4.561   2.054   4.987  1.00  0.00     0.090 A 
ATOM     24  HN  UNL     1      -4.943   1.130   6.804  1.00  0.00     0.164 HD
HETATM   25  C   UNL     1      -3.693   2.253   3.920  1.00  0.00     0.046 A 
ENDBRANCH   4  19
TORSDOF 4
