REMARK  4 active torsions:
REMARK  status: ('A' for Active; 'I' for Inactive)
REMARK    1  A    between atoms: C_9  and  C_10 
REMARK    2  A    between atoms: C_10  and  C_11 
REMARK    3  A    between atoms: C_11  and  N_12 
REMARK    4  A    between atoms: N_12  and  C_13 
ROOT
HETATM    1  N   UNL     1       1.668   4.211  -0.471  1.00  0.00    -0.415 N 
HETATM    2  H   UNL     1       2.018   4.413  -1.398  1.00  0.00     0.153 HD
ENDROOT
BRANCH   1   3
HETATM    3  C   UNL     1       1.890   2.840  -0.045  1.00  0.00     0.119 C 
BRANCH   3   4
HETATM    4  C   UNL     1       3.315   2.371  -0.396  1.00  0.00     0.062 C 
BRANCH   4   5
HETATM    5  C   UNL     1       4.436   3.100   0.293  1.00  0.00    -0.009 A 
HETATM    6  C   UNL     1       4.748   3.122   1.684  1.00  0.00     0.030 A 
HETATM    7  C   UNL     1       4.034   2.466   2.808  1.00  0.00     0.070 C 
HETATM    8  N   UNL     1       5.854   3.827   1.935  1.00  0.00    -0.303 N 
HETATM    9  N   UNL     1       6.250   4.270   0.731  1.00  0.00    -0.300 N 
ATOM     10  HN  UNL     1       6.298   3.992   2.838  1.00  0.00     0.186 HD
HETATM   11  C   UNL     1       7.458   5.056   0.644  1.00  0.00     0.177 C 
HETATM   12  C   UNL     1       5.437   3.861  -0.293  1.00  0.00     0.032 A 
HETATM   13  C   UNL     1       5.673   4.211  -1.720  1.00  0.00     0.070 C 
ENDBRANCH   4   5
ENDBRANCH   3   4
ENDBRANCH   1   3
BRANCH   1  14
HETATM   14  C   UNL     1       0.430   4.804   0.011  1.00  0.00     0.093 C 
HETATM   15  C   UNL     1      -0.886   4.256  -0.637  1.00  0.00     0.039 C 
HETATM   16  C   UNL     1      -1.926   3.353   0.013  1.00  0.00     0.011 C 
HETATM   17  C   UNL     1      -1.357   5.758  -0.592  1.00  0.00     0.137 C 
HETATM   18  C   UNL     1      -2.384   3.888   1.363  1.00  0.00     0.027 C 
HETATM   19  C   UNL     1      -2.883   5.329   1.267  1.00  0.00     0.168 C 
HETATM   20  O   UNL     1      -1.900   6.185   0.685  1.00  0.00    -0.385 OA
HETATM   21  C   UNL     1       0.154   6.121  -0.842  1.00  0.00    -0.001 C 
HETATM   22  C   UNL     1       0.728   7.371  -0.182  1.00  0.00     0.019 C 
HETATM   23  C   UNL     1       0.440   6.171  -2.361  1.00  0.00     0.019 C 
ENDBRANCH   1  14
TORSDOF 4
