REMARK  5 active torsions:
REMARK  status: ('A' for Active; 'I' for Inactive)
REMARK    1  A    between atoms: C_2  and  C_3 
REMARK    2  A    between atoms: C_2  and  N_15 
REMARK       I    between atoms: C_3  and  N_5 
REMARK    3  A    between atoms: N_5  and  C_6 
REMARK    4  A    between atoms: C_6  and  C_7 
REMARK    5  A    between atoms: C_7  and  N_8 
ROOT
HETATM    1  C   UNL     1       2.547  -1.011   1.032  1.00  0.00     0.242 C 
HETATM    2  O   UNL     1       2.990  -2.107   0.691  1.00  0.00    -0.271 OA
HETATM    3  N   UNL     1       2.437  -0.646   2.371  1.00  0.00    -0.358 N 
HETATM    4  H   UNL     1       2.345   0.347   2.590  1.00  0.00     0.162 HD
ENDROOT
BRANCH   1   5
HETATM    5  C   UNL     1       2.058  -0.003   0.001  1.00  0.00     0.196 C 
HETATM    6  C   UNL     1       2.116  -0.596  -1.411  1.00  0.00     0.044 C 
BRANCH   5   7
HETATM    7  N   UNL     1       2.835   1.218   0.087  1.00  0.00    -0.273 N 
HETATM    8  C   UNL     1       4.165   1.393  -0.143  1.00  0.00     0.202 A 
HETATM    9  N   UNL     1       4.478   2.655   0.043  1.00  0.00    -0.346 N 
HETATM   10  C   UNL     1       3.287   3.220   0.396  1.00  0.00     0.198 A 
ATOM     11  HN  UNL     1       5.389   3.103  -0.053  1.00  0.00     0.167 HD
HETATM   12  N   UNL     1       2.255   2.375   0.466  1.00  0.00    -0.292 N 
ATOM     13  HN  UNL     1       1.288   2.556   0.734  1.00  0.00     0.188 HD
ENDBRANCH   5   7
ENDBRANCH   1   5
BRANCH   3  14
HETATM   14  C   UNL     1       3.046  -1.523   3.357  1.00  0.00     0.152 C 
BRANCH  14  15
HETATM   15  C   UNL     1       2.477  -1.427   4.787  1.00  0.00     0.292 C 
BRANCH  15  16
HETATM   16  N   UNL     1       3.130  -2.387   5.705  1.00  0.00     0.093 N 
HETATM   17  C   UNL     1       2.894  -3.806   5.354  1.00  0.00     0.302 C 
HETATM   18  C   UNL     1       1.476  -4.335   5.671  1.00  0.00     0.302 C 
HETATM   19  N   UNL     1       1.031  -4.116   7.060  1.00  0.00     0.087 N 
HETATM   20  C   UNL     1       1.657  -5.070   7.975  1.00  0.00     0.310 C 
HETATM   21  C   UNL     1       1.300  -2.720   7.459  1.00  0.00     0.302 C 
HETATM   22  C   UNL     1       2.713  -2.187   7.110  1.00  0.00     0.302 C 
ENDBRANCH  15  16
ENDBRANCH  14  15
ENDBRANCH   3  14
TORSDOF 5
