REMARK  5 active torsions:
REMARK  status: ('A' for Active; 'I' for Inactive)
REMARK    1  A    between atoms: N_1  and  C1*_7 
REMARK    2  A    between atoms: C_12  and  N_19 
REMARK    3  A    between atoms: C4*_13  and  C5*_21 
REMARK    4  A    between atoms: C3*_16  and  O3*_20 
REMARK    5  A    between atoms: C5*_21  and  O5*_22 
ROOT
HETATM    1  N   UNL     1       1.565   1.140   0.049  1.00  0.00    -0.283 N 
HETATM    2  C   UNL     1       2.321   0.025   0.355  1.00  0.00     0.160 A 
HETATM    3  C   UNL     1       0.308   0.694  -0.270  1.00  0.00     0.143 A 
HETATM    4  N   UNL     1       1.627  -1.088   0.256  1.00  0.00    -0.330 N 
ATOM      5  HN  UNL     1       1.946  -2.039   0.438  1.00  0.00     0.168 HD
HETATM    6  C   UNL     1       0.376  -0.685  -0.147  1.00  0.00     0.117 A 
HETATM    7  N   UNL     1      -0.770   1.408  -0.639  1.00  0.00    -0.336 N 
ATOM      8  HN  UNL     1      -0.784   2.424  -0.729  1.00  0.00     0.168 HD
HETATM    9  C   UNL     1      -0.786  -1.415  -0.448  1.00  0.00     0.109 A 
HETATM   10  N   UNL     1      -1.900  -0.736  -0.795  1.00  0.00    -0.341 N 
ATOM     11  HN  UNL     1      -2.772  -1.227  -0.992  1.00  0.00     0.167 HD
HETATM   12  C   UNL     1      -1.830   0.608  -0.875  1.00  0.00     0.183 A 
HETATM   13 BR   UNL     1       4.140   0.005   0.827  1.00  0.00    -0.010 Br
ENDROOT
BRANCH   1  14
HETATM   14  C1* UNL     1       2.087   2.483  -0.047  1.00  0.00     0.235 C 
HETATM   15  O4* UNL     1       2.643   2.857   1.237  1.00  0.00    -0.356 OA
HETATM   16  C4* UNL     1       2.522   4.294   1.374  1.00  0.00     0.176 C 
HETATM   17  C3* UNL     1       2.001   4.810   0.025  1.00  0.00     0.153 C 
HETATM   18  C2* UNL     1       1.170   3.634  -0.437  1.00  0.00     0.088 C 
BRANCH  16  19
HETATM   19  C5* UNL     1       3.872   4.850   1.817  1.00  0.00     0.198 C 
BRANCH  19  20
HETATM   20  O5* UNL     1       4.880   4.475   0.873  1.00  0.00    -0.398 OA
HETATM   21  H5* UNL     1       5.012   3.514   0.999  1.00  0.00     0.209 HD
ENDBRANCH  19  20
ENDBRANCH  16  19
BRANCH  17  22
HETATM   22  O3* UNL     1       3.005   5.035  -0.964  1.00  0.00    -0.393 OA
HETATM   23  H3* UNL     1       3.891   4.934  -0.553  1.00  0.00     0.210 HD
ENDBRANCH  17  22
ENDBRANCH   1  14
BRANCH   9  24
HETATM   24  N   UNL     1      -0.839  -2.801  -0.395  1.00  0.00    -0.287 NA
HETATM   25  H   UNL     1      -0.106  -3.217   0.168  1.00  0.00     0.125 HD
HETATM   26  H   UNL     1      -1.781  -3.148  -0.281  1.00  0.00     0.125 HD
ENDBRANCH   9  24
TORSDOF 5
