REMARK  3 active torsions:
REMARK  status: ('A' for Active; 'I' for Inactive)
REMARK    1  A    between atoms: C_8  and  N_9 
REMARK       I    between atoms: N_9  and  C_10 
REMARK       I    between atoms: C_10  and  N_12 
REMARK    2  A    between atoms: N_12  and  C_13 
REMARK    3  A    between atoms: C_17  and  C_19 
ROOT
HETATM    1  N   UNL     1       2.986  -3.076   0.536  1.00  0.00    -0.140 N 
HETATM    2  C   UNL     1       1.757  -3.496   0.983  1.00  0.00     0.334 C 
HETATM    3  O   UNL     1       1.401  -3.236   2.125  1.00  0.00    -0.246 OA
HETATM    4  N   UNL     1       0.955  -4.049   0.029  1.00  0.00    -0.338 N 
HETATM    5  H   UNL     1       3.486  -2.479   1.178  1.00  0.00     0.189 HD
HETATM    6  H   UNL     1       1.470  -4.488  -0.730  1.00  0.00     0.164 HD
ENDROOT
BRANCH   1   7
HETATM    7  C   UNL     1       3.450  -3.301  -0.740  1.00  0.00     0.703 A 
HETATM    8  N   UNL     1       4.416  -2.557  -1.365  1.00  0.00    -0.127 N 
HETATM    9  C   UNL     1       4.958  -1.285  -0.960  1.00  0.00     0.197 C 
HETATM   10  N   UNL     1       4.656  -3.027  -2.606  1.00  0.00    -0.280 N 
HETATM   11  C   UNL     1       3.787  -4.030  -2.690  1.00  0.00     0.215 A 
ATOM     12  HN  UNL     1       5.328  -2.699  -3.299  1.00  0.00     0.188 HD
HETATM   13  N   UNL     1       3.018  -4.221  -1.582  1.00  0.00    -0.185 N 
ATOM     14  HN  UNL     1       2.282  -4.912  -1.437  1.00  0.00     0.185 HD
ENDBRANCH   1   7
BRANCH   4  15
HETATM   15  C   UNL     1      -0.477  -4.295   0.104  1.00  0.00     0.090 C 
HETATM   16  C   UNL     1      -0.983  -4.683  -1.296  1.00  0.00     0.051 C 
HETATM   17  C   UNL     1      -0.978  -3.477  -2.237  1.00  0.00     0.170 C 
HETATM   18  O   UNL     1      -1.723  -2.389  -1.686  1.00  0.00    -0.385 OA
HETATM   19  C   UNL     1      -1.161  -1.943  -0.445  1.00  0.00     0.127 C 
HETATM   20  C   UNL     1      -1.265  -3.073   0.582  1.00  0.00     0.057 C 
BRANCH  19  21
HETATM   21  C   UNL     1      -1.839  -0.694   0.050  1.00  0.00     0.015 A 
HETATM   22  C   UNL     1      -3.329  -0.637   0.283  1.00  0.00     0.007 A 
HETATM   23  C   UNL     1      -2.714   0.165  -0.832  1.00  0.00     0.007 A 
ENDBRANCH  19  21
ENDBRANCH   4  15
TORSDOF 3
