REMARK  3 active torsions:
REMARK  status: ('A' for Active; 'I' for Inactive)
REMARK    1  A    between atoms: C_2  and  C_3 
REMARK    2  A    between atoms: C_2  and  N_10 
REMARK    3  A    between atoms: C_3  and  N_4 
REMARK       I    between atoms: N_10  and  C_11 
REMARK       I    between atoms: C_11  and  N_13 
ROOT
HETATM    1  C   UNL     1       0.964  -0.209   0.081  1.00  0.00     0.034 C 
HETATM    2  C   UNL     1       2.485  -0.066   0.031  1.00  0.00     0.100 C 
ENDROOT
BRANCH   2   3
HETATM    3  C   UNL     1       2.972   1.288   0.583  1.00  0.00     0.153 C 
BRANCH   3   4
HETATM    4  N   UNL     1       2.461   2.448  -0.121  1.00  0.00    -0.350 N 
HETATM    5  C   UNL     1       1.717   3.461   0.418  1.00  0.00     0.108 A 
HETATM    6  C   UNL     1       1.514   4.343  -0.620  1.00  0.00     0.106 A 
HETATM    7  N   UNL     1       2.111   3.888  -1.765  1.00  0.00    -0.361 N 
HETATM    8  C   UNL     1       2.683   2.754  -1.433  1.00  0.00     0.182 A 
ATOM      9  HN  UNL     1       2.111   4.335  -2.682  1.00  0.00     0.166 HD
ENDBRANCH   3   4
ENDBRANCH   2   3
BRANCH   2  10
HETATM   10  N   UNL     1       3.074  -1.184   0.771  1.00  0.00    -0.337 N 
HETATM   11  C   UNL     1       4.318  -1.685   0.491  1.00  0.00     0.318 C 
HETATM   12  O   UNL     1       5.027  -1.207  -0.386  1.00  0.00    -0.247 OA
HETATM   13  N   UNL     1       4.674  -2.786   1.235  1.00  0.00    -0.334 N 
HETATM   14  C   UNL     1       3.934  -3.415   2.316  1.00  0.00     0.127 C 
HETATM   15  C   UNL     1       5.903  -3.509   0.967  1.00  0.00     0.127 C 
HETATM   16  C   UNL     1       4.645  -4.735   2.594  1.00  0.00     0.022 C 
HETATM   17  C   UNL     1       5.584  -4.928   1.409  1.00  0.00     0.022 C 
HETATM   18  H   UNL     1       2.638  -1.469   1.631  1.00  0.00     0.164 HD
ENDBRANCH   2  10
TORSDOF 3
