REMARK  6 active torsions:
REMARK  status: ('A' for Active; 'I' for Inactive)
REMARK    1  A    between atoms: C_5  and  N_18 
REMARK    2  A    between atoms: C_9  and  C_10 
REMARK    3  A    between atoms: C_10  and  C_11 
REMARK    4  A    between atoms: C_11  and  C_12 
REMARK       I    between atoms: C_12  and  N_14 
REMARK    5  A    between atoms: N_14  and  C_15 
REMARK    6  A    between atoms: C_15  and  C_16 
ROOT
HETATM    1  C   UNL     1       1.083  -0.489   0.009  1.00  0.00     0.069 C 
HETATM    2  C   UNL     1       2.565  -0.213   0.022  1.00  0.00     0.034 C 
HETATM    3  N   UNL     1       3.343  -1.352   0.073  1.00  0.00    -0.195 N 
ATOM      4  HN  UNL     1       2.911  -2.269   0.192  1.00  0.00     0.184 HD
HETATM    5  C   UNL     1       4.630  -1.240  -0.032  1.00  0.00     0.683 C 
HETATM    6  N   UNL     1       5.219  -0.013  -0.116  1.00  0.00    -0.156 N 
HETATM    7  C   UNL     1       4.535   1.151   0.018  1.00  0.00     0.267 C 
HETATM    8  O   UNL     1       5.118   2.221   0.163  1.00  0.00    -0.267 OA
HETATM    9  C   UNL     1       3.061   1.041  -0.020  1.00  0.00     0.034 C 
HETATM   10  H   UNL     1       6.217   0.062  -0.045  1.00  0.00     0.187 HD
ENDROOT
BRANCH   9  11
HETATM   11  C   UNL     1       2.280   2.334  -0.050  1.00  0.00     0.055 C 
BRANCH  11  12
HETATM   12  C   UNL     1       2.578   3.271  -1.230  1.00  0.00     0.107 C 
BRANCH  12  13
HETATM   13  C   UNL     1       2.166   2.712  -2.576  1.00  0.00     0.218 C 
HETATM   14  O   UNL     1       1.616   1.628  -2.720  1.00  0.00    -0.274 OA
HETATM   15  N   UNL     1       2.465   3.556  -3.623  1.00  0.00    -0.358 N 
HETATM   16  H   UNL     1       2.942   4.430  -3.442  1.00  0.00     0.162 HD
BRANCH  15  17
HETATM   17  C   UNL     1       2.228   3.184  -4.995  1.00  0.00     0.149 C 
BRANCH  17  18
HETATM   18  C   UNL     1       1.320   4.208  -5.597  1.00  0.00    -0.018 C 
HETATM   19  C   UNL     1       1.618   4.950  -6.672  1.00  0.00     0.008 C 
ENDBRANCH  17  18
ENDBRANCH  15  17
ENDBRANCH  12  13
ENDBRANCH  11  12
ENDBRANCH   9  11
BRANCH   5  20
HETATM   20  N   UNL     1       5.469  -2.329  -0.049  1.00  0.00    -0.213 N 
HETATM   21  C   UNL     1       6.753  -2.370  -0.756  1.00  0.00     0.167 C 
HETATM   22  C   UNL     1       6.823  -3.611  -1.655  1.00  0.00     0.188 C 
HETATM   23  O   UNL     1       6.612  -4.809  -0.897  1.00  0.00    -0.388 OA
HETATM   24  C   UNL     1       5.302  -4.788  -0.305  1.00  0.00     0.188 C 
HETATM   25  C   UNL     1       5.121  -3.587   0.632  1.00  0.00     0.167 C 
ENDBRANCH   5  20
TORSDOF 6
