REMARK  2 active torsions:
REMARK  status: ('A' for Active; 'I' for Inactive)
REMARK       I    between atoms: C_2  and  N_3 
REMARK       I    between atoms: C_2  and  N_13 
REMARK    1  A    between atoms: N_3  and  C_4 
REMARK    2  A    between atoms: N_13  and  C_14 
ROOT
HETATM    1  O   UNL     1       1.277   0.723  -0.441  1.00  0.00    -0.247 OA
HETATM    2  C   UNL     1       2.473   0.573  -0.208  1.00  0.00     0.322 C 
HETATM    3  N   UNL     1       2.985   0.349   1.029  1.00  0.00    -0.336 N 
HETATM    4  N   UNL     1       3.357   0.615  -1.244  1.00  0.00    -0.295 N 
HETATM    5  H   UNL     1       4.000   0.278   1.071  1.00  0.00     0.164 HD
HETATM    6  H   UNL     1       2.906   0.765  -2.134  1.00  0.00     0.172 HD
ENDROOT
BRANCH   3   7
HETATM    7  C   UNL     1       2.216   0.142   2.242  1.00  0.00     0.121 C 
HETATM    8  C   UNL     1       1.335   1.343   2.612  1.00  0.00     0.057 C 
HETATM    9  C   UNL     1      -0.084   0.786   2.708  1.00  0.00     0.275 C 
HETATM   10  N   UNL     1       0.130  -0.622   3.041  1.00  0.00     0.095 N 
HETATM   11  C   UNL     1      -1.033  -1.477   2.812  1.00  0.00     0.273 C 
HETATM   12  C   UNL     1       1.233  -1.033   2.156  1.00  0.00     0.245 C 
HETATM   13  C   UNL     1      -0.674  -2.932   3.151  1.00  0.00     0.030 C 
HETATM   14  C   UNL     1       0.612  -3.411   2.464  1.00  0.00     0.004 C 
HETATM   15  C   UNL     1       1.748  -2.392   2.615  1.00  0.00     0.038 C 
ENDBRANCH   3   7
BRANCH   4  16
HETATM   16  C   UNL     1       4.734   0.379  -1.230  1.00  0.00     0.108 A 
HETATM   17  C   UNL     1       5.401   0.369  -2.449  1.00  0.00     0.049 A 
HETATM   18  C   UNL     1       6.765   0.082  -2.468  1.00  0.00     0.005 A 
HETATM   19  C   UNL     1       7.423  -0.175  -1.273  1.00  0.00     0.017 A 
HETATM   20  C   UNL     1       6.691  -0.125  -0.103  1.00  0.00     0.089 A 
HETATM   21  N   UNL     1       5.368   0.144  -0.059  1.00  0.00    -0.352 N 
ATOM     22  HN  UNL     1       4.864   0.169   0.828  1.00  0.00     0.166 HD
ENDBRANCH   4  16
TORSDOF 2
