REMARK  3 active torsions:
REMARK  status: ('A' for Active; 'I' for Inactive)
REMARK    1  A    between atoms: C_6  and  N_8 
REMARK       I    between atoms: N_8  and  C_9 
REMARK    2  A    between atoms: C_9  and  C_11 
REMARK    3  A    between atoms: C_11  and  N_12 
ROOT
HETATM    1  N   UNL     1       3.107  -3.122  -2.227  1.00  0.00    -0.355 N 
HETATM    2  C   UNL     1       2.412  -3.869  -3.156  1.00  0.00     0.237 C 
HETATM    3  O   UNL     1       1.399  -3.460  -3.719  1.00  0.00    -0.272 OA
HETATM    4  H   UNL     1       3.996  -3.449  -1.869  1.00  0.00     0.162 HD
ENDROOT
BRANCH   1   5
HETATM    5  C   UNL     1       2.669  -1.783  -1.859  1.00  0.00     0.084 C 
HETATM    6  C   UNL     1       3.232  -0.729  -2.819  1.00  0.00     0.025 C 
HETATM    7  C   UNL     1       2.774   0.677  -2.433  1.00  0.00     0.002 C 
HETATM    8  C   UNL     1       3.103   1.006  -0.977  1.00  0.00     0.004 C 
HETATM    9  C   UNL     1       2.598  -0.054   0.013  1.00  0.00    -0.017 C 
HETATM   10  C   UNL     1       1.077   0.009   0.183  1.00  0.00     0.010 C 
HETATM   11  C   UNL     1       3.062  -1.456  -0.412  1.00  0.00     0.029 C 
ENDBRANCH   1   5
BRANCH   2  12
HETATM   12  C   UNL     1       2.966  -5.243  -3.435  1.00  0.00     0.249 C 
BRANCH  12  13
HETATM   13  N   UNL     1       2.026  -6.265  -3.055  1.00  0.00    -0.264 N 
HETATM   14  C   UNL     1       0.791  -6.525  -3.557  1.00  0.00     0.213 A 
HETATM   15  N   UNL     1       0.319  -7.595  -2.961  1.00  0.00    -0.281 N 
HETATM   16  N   UNL     1       1.296  -7.996  -2.079  1.00  0.00    -0.008 NA
ATOM     17  HN  UNL     1      -0.586  -8.038  -3.119  1.00  0.00     0.184 HD
HETATM   18  N   UNL     1       2.348  -7.191  -2.136  1.00  0.00    -0.005 NA
ENDBRANCH  12  13
ENDBRANCH   2  12
TORSDOF 3
