REMARK  5 active torsions:
REMARK  status: ('A' for Active; 'I' for Inactive)
REMARK    1  A    between atoms: C_2  and  C_4 
REMARK    2  A    between atoms: C_4  and  N_6 
REMARK       I    between atoms: N_6  and  C_8 
REMARK       I    between atoms: C_8  and  N_10 
REMARK    3  A    between atoms: N_10  and  C_11 
REMARK    4  A    between atoms: N_15  and  C_16 
REMARK    5  A    between atoms: C_16  and  C_17 
REMARK       I    between atoms: C_17  and  N_19 
ROOT
HETATM    1  C   UNL     1       7.211   1.842  -3.510  1.00  0.00     0.070 A 
HETATM    2  C   UNL     1       6.873   2.754  -4.532  1.00  0.00     0.138 A 
HETATM    3  N   UNL     1       7.879   2.958  -5.388  1.00  0.00    -0.307 N 
ATOM      4  HN  UNL     1       7.901   3.576  -6.199  1.00  0.00     0.186 HD
HETATM    5  N   UNL     1       8.859   2.153  -4.926  1.00  0.00    -0.293 N 
HETATM    6  C   UNL     1       8.530   1.534  -3.751  1.00  0.00     0.141 A 
ENDROOT
BRANCH   1   7
HETATM    7  N   UNL     1       6.463   1.308  -2.475  1.00  0.00    -0.306 N 
HETATM    8  C   UNL     1       5.090   1.422  -2.394  1.00  0.00     0.323 C 
HETATM    9  N   UNL     1       4.509   0.790  -1.292  1.00  0.00    -0.334 N 
HETATM   10  O   UNL     1       4.414   2.014  -3.231  1.00  0.00    -0.247 OA
HETATM   11  C   UNL     1       5.279   0.293  -0.156  1.00  0.00     0.155 C 
HETATM   12  H   UNL     1       6.929   0.632  -1.893  1.00  0.00     0.171 HD
BRANCH   9  13
HETATM   13  C   UNL     1       3.028   0.737  -1.227  1.00  0.00     0.087 C 
HETATM   14  C   UNL     1       2.520   1.694  -0.140  1.00  0.00     0.033 C 
BRANCH  13  15
HETATM   15  C   UNL     1       2.473  -0.710  -1.080  1.00  0.00    -0.000 C 
HETATM   16  C   UNL     1       0.940  -0.738  -1.169  1.00  0.00     0.011 C 
HETATM   17  C   UNL     1       3.028  -1.648  -2.162  1.00  0.00     0.011 C 
ENDBRANCH  13  15
ENDBRANCH   9  13
ENDBRANCH   1   7
BRANCH   5  18
HETATM   18  C   UNL     1      10.085   2.055  -5.700  1.00  0.00     0.250 C 
BRANCH  18  19
HETATM   19  C   UNL     1      10.743   0.698  -5.627  1.00  0.00     0.235 C 
HETATM   20  O   UNL     1      11.261   0.241  -4.611  1.00  0.00    -0.272 OA
HETATM   21  N   UNL     1      10.769  -0.029  -6.785  1.00  0.00    -0.369 N 
HETATM   22  H   UNL     1      10.227   0.213  -7.605  1.00  0.00     0.159 HD
HETATM   23  H   UNL     1      11.169  -0.959  -6.740  1.00  0.00     0.159 HD
ENDBRANCH  18  19
ENDBRANCH   5  18
TORSDOF 5
