REMARK  5 active torsions:
REMARK  status: ('A' for Active; 'I' for Inactive)
REMARK    1  A    between atoms: C_2  and  C_3 
REMARK    2  A    between atoms: C_3  and  C_4 
REMARK    3  A    between atoms: C_3  and  C_6 
REMARK    4  A    between atoms: C_8  and  N_12 
REMARK       I    between atoms: N_12  and  C_13 
REMARK       I    between atoms: C_13  and  N_15 
REMARK    5  A    between atoms: N_15  and  C_16 
ROOT
HETATM    1  N   UNL     1       5.154   3.000  -2.681  1.00  0.00    -0.338 N 
HETATM    2  C   UNL     1       4.511   3.251  -3.876  1.00  0.00     0.321 C 
HETATM    3  O   UNL     1       3.534   2.609  -4.249  1.00  0.00    -0.247 OA
HETATM    4  N   UNL     1       5.070   4.324  -4.537  1.00  0.00    -0.306 N 
HETATM    5  H   UNL     1       6.130   3.248  -2.619  1.00  0.00     0.164 HD
HETATM    6  H   UNL     1       5.810   4.837  -4.087  1.00  0.00     0.171 HD
ENDROOT
BRANCH   1   7
HETATM    7  C   UNL     1       4.666   1.951  -1.792  1.00  0.00     0.090 C 
HETATM    8  C   UNL     1       4.967   2.290  -0.335  1.00  0.00     0.057 C 
HETATM    9  C   UNL     1       4.396   1.209   0.591  1.00  0.00     0.127 C 
HETATM   10  O   UNL     1       4.981  -0.053   0.237  1.00  0.00    -0.385 OA
HETATM   11  C   UNL     1       4.825  -0.463  -1.121  1.00  0.00     0.170 C 
HETATM   12  C   UNL     1       5.274   0.591  -2.126  1.00  0.00     0.051 C 
BRANCH   9  13
HETATM   13  C   UNL     1       2.835   1.172   0.680  1.00  0.00     0.014 C 
BRANCH  13  14
HETATM   14  C   UNL     1       2.364   0.013   1.596  1.00  0.00     0.002 C 
HETATM   15  C   UNL     1       0.849  -0.100   1.736  1.00  0.00     0.005 C 
ENDBRANCH  13  14
BRANCH  13  16
HETATM   16  C   UNL     1       2.234   2.540   1.094  1.00  0.00     0.002 C 
HETATM   17  C   UNL     1       2.708   3.069   2.443  1.00  0.00     0.005 C 
ENDBRANCH  13  16
ENDBRANCH   9  13
ENDBRANCH   1   7
BRANCH   4  18
HETATM   18  C   UNL     1       4.549   4.857  -5.703  1.00  0.00     0.070 A 
HETATM   19  C   UNL     1       3.469   4.445  -6.516  1.00  0.00     0.138 A 
HETATM   20  N   UNL     1       3.267   5.266  -7.552  1.00  0.00    -0.308 N 
HETATM   21  N   UNL     1       4.212   6.207  -7.394  1.00  0.00    -0.306 N 
ATOM     22  HN  UNL     1       2.563   5.195  -8.287  1.00  0.00     0.186 HD
HETATM   23  C   UNL     1       4.268   7.328  -8.301  1.00  0.00     0.177 C 
HETATM   24  C   UNL     1       5.025   5.993  -6.315  1.00  0.00     0.140 A 
ENDBRANCH   4  18
TORSDOF 5
