REMARK  3 active torsions:
REMARK  status: ('A' for Active; 'I' for Inactive)
REMARK    1  A    between atoms: C_2  and  N_3 
REMARK    2  A    between atoms: C_5  and  N_6 
REMARK       I    between atoms: N_6  and  C_7 
REMARK       I    between atoms: C_7  and  N_9 
REMARK    3  A    between atoms: N_9  and  C_10 
REMARK       I    between atoms: N_13  and  C_16 
ROOT
HETATM    1  N   UNL     1       4.672   2.189   3.844  1.00  0.00    -0.306 N 
HETATM    2  C   UNL     1       4.151   3.464   3.864  1.00  0.00     0.321 C 
HETATM    3  O   UNL     1       3.437   3.959   3.000  1.00  0.00    -0.247 OA
HETATM    4  N   UNL     1       4.510   4.187   4.991  1.00  0.00    -0.338 N 
HETATM    5  H   UNL     1       5.319   1.907   4.563  1.00  0.00     0.171 HD
HETATM    6  H   UNL     1       4.773   3.651   5.804  1.00  0.00     0.164 HD
ENDROOT
BRANCH   1   7
HETATM    7  C   UNL     1       4.425   1.287   2.818  1.00  0.00     0.070 A 
HETATM    8  C   UNL     1       3.624   1.470   1.716  1.00  0.00     0.141 A 
HETATM    9  N   UNL     1       3.710   0.336   0.968  1.00  0.00    -0.302 N 
HETATM   10  N   UNL     1       4.498  -0.605   1.523  1.00  0.00    -0.308 N 
HETATM   11  C   UNL     1       4.930  -0.022   2.649  1.00  0.00     0.138 A 
ATOM     12  HN  UNL     1       4.714  -1.537   1.171  1.00  0.00     0.186 HD
BRANCH   9  13
HETATM   13  C   UNL     1       3.056   0.112  -0.305  1.00  0.00     0.143 C 
HETATM   14  C   UNL     1       3.907   0.578  -1.475  1.00  0.00     0.028 C 
ENDBRANCH   9  13
ENDBRANCH   1   7
BRANCH   4  15
HETATM   15  C   UNL     1       3.834   5.472   5.200  1.00  0.00     0.089 C 
HETATM   16  C   UNL     1       4.661   6.479   6.001  1.00  0.00     0.045 C 
HETATM   17  C   UNL     1       4.614   6.268   7.513  1.00  0.00     0.127 C 
HETATM   18  N   UNL     1       3.251   6.031   7.990  1.00  0.00    -0.352 N 
HETATM   19  C   UNL     1       2.542   4.957   7.297  1.00  0.00     0.127 C 
HETATM   20  C   UNL     1       2.615   6.641   9.061  1.00  0.00     0.215 C 
HETATM   21  C   UNL     1       2.442   5.269   5.812  1.00  0.00     0.045 C 
HETATM   22  O   UNL     1       1.474   6.320   9.407  1.00  0.00    -0.274 OA
HETATM   23  C   UNL     1       3.302   7.737   9.834  1.00  0.00     0.117 C 
ENDBRANCH   4  15
TORSDOF 3
