REMARK  4 active torsions:
REMARK  status: ('A' for Active; 'I' for Inactive)
REMARK    1  A    between atoms: C_5  and  O_6 
REMARK    2  A    between atoms: C_5  and  C_7 
REMARK    3  A    between atoms: C_7  and  N_8 
REMARK    4  A    between atoms: C_12  and  C_16 
ROOT
HETATM    1  N   UNL     1       5.396   0.152  -3.849  1.00  0.00    -0.308 N 
HETATM    2  C   UNL     1       5.666  -0.323  -5.110  1.00  0.00     0.186 A 
HETATM    3  N   UNL     1       6.353   0.303  -6.007  1.00  0.00    -0.355 N 
ATOM      4  HN  UNL     1       6.504  -0.092  -6.935  1.00  0.00     0.166 HD
HETATM    5  C   UNL     1       6.869   1.522  -5.654  1.00  0.00     0.019 A 
HETATM    6  C   UNL     1       6.637   2.120  -4.481  1.00  0.00     0.100 A 
HETATM    7  C   UNL     1       5.838   1.404  -3.480  1.00  0.00     0.250 A 
HETATM    8  O   UNL     1       5.656   1.928  -2.386  1.00  0.00    -0.268 OA
ENDROOT
BRANCH   1   9
HETATM    9  C   UNL     1       4.799  -0.729  -2.844  1.00  0.00     0.170 C 
BRANCH   9  10
HETATM   10  C   UNL     1       3.247  -0.729  -2.803  1.00  0.00     0.074 C 
HETATM   11  C   UNL     1       2.625   0.638  -2.475  1.00  0.00     0.040 C 
HETATM   12  C   UNL     1       2.876   1.078  -1.032  1.00  0.00     0.007 C 
HETATM   13  C   UNL     1       2.424   0.042   0.004  1.00  0.00    -0.019 C 
HETATM   14  C   UNL     1       0.901   0.028   0.145  1.00  0.00     0.010 C 
HETATM   15  C   UNL     1       2.981  -1.351  -0.325  1.00  0.00     0.007 C 
HETATM   16  C   UNL     1       2.743  -1.769  -1.778  1.00  0.00     0.040 C 
BRANCH  10  17
HETATM   17  O   UNL     1       2.766  -1.162  -4.086  1.00  0.00    -0.388 OA
HETATM   18  H   UNL     1       2.856  -0.417  -4.706  1.00  0.00     0.210 HD
ENDBRANCH  10  17
ENDBRANCH   9  10
ENDBRANCH   1   9
BRANCH   5  19
HETATM   19  C   UNL     1       7.850   2.168  -6.571  1.00  0.00     0.036 C 
HETATM   20  C   UNL     1       7.499   3.587  -7.094  1.00  0.00     0.011 C 
HETATM   21  C   UNL     1       8.198   3.186  -8.410  1.00  0.00     0.001 C 
HETATM   22  C   UNL     1       7.851   1.724  -8.058  1.00  0.00     0.011 C 
ENDBRANCH   5  19
TORSDOF 4
