REMARK  4 active torsions:
REMARK  status: ('A' for Active; 'I' for Inactive)
REMARK       I    between atoms: C_2  and  N_3 
REMARK       I    between atoms: C_2  and  N_14 
REMARK    1  A    between atoms: N_3  and  C_4 
REMARK    2  A    between atoms: C_4  and  C_5 
REMARK    3  A    between atoms: C_5  and  N_6 
REMARK    4  A    between atoms: N_14  and  C_15 
ROOT
HETATM    1  O   UNL     1       1.014   0.110   0.014  1.00  0.00    -0.247 OA
HETATM    2  C   UNL     1       2.218   0.187  -0.236  1.00  0.00     0.322 C 
HETATM    3  N   UNL     1       2.871  -0.723  -1.012  1.00  0.00    -0.341 N 
HETATM    4  N   UNL     1       2.950   1.187   0.319  1.00  0.00    -0.288 N 
HETATM    5  H   UNL     1       3.766  -0.433  -1.398  1.00  0.00     0.164 HD
HETATM    6  H   UNL     1       2.454   1.801   0.944  1.00  0.00     0.172 HD
ENDROOT
BRANCH   3   7
HETATM    7  C   UNL     1       2.167  -1.812  -1.648  1.00  0.00     0.144 C 
BRANCH   7   8
HETATM    8  C   UNL     1       3.099  -2.786  -2.384  1.00  0.00     0.145 C 
BRANCH   8   9
HETATM    9  N   UNL     1       2.337  -3.809  -3.103  1.00  0.00    -0.351 N 
HETATM   10  C   UNL     1       1.602  -4.796  -2.316  1.00  0.00     0.126 C 
HETATM   11  C   UNL     1       0.105  -4.746  -2.571  1.00  0.00     0.020 C 
HETATM   12  C   UNL     1      -0.339  -5.557  -3.786  1.00  0.00     0.002 C 
HETATM   13  C   UNL     1       0.649  -5.630  -4.950  1.00  0.00     0.009 C 
HETATM   14  C   UNL     1       1.308  -4.309  -5.290  1.00  0.00     0.103 C 
HETATM   15  C   UNL     1       2.530  -3.937  -4.468  1.00  0.00     0.219 C 
HETATM   16  O   UNL     1       3.572  -3.593  -5.025  1.00  0.00    -0.273 OA
ENDBRANCH   8   9
ENDBRANCH   7   8
ENDBRANCH   3   7
BRANCH   4  17
HETATM   17  C   UNL     1       4.293   1.366   0.155  1.00  0.00     0.168 A 
HETATM   18  N   UNL     1       5.119   0.727  -0.637  1.00  0.00    -0.279 N 
HETATM   19  N   UNL     1       6.419   1.166  -0.480  1.00  0.00    -0.303 N 
ATOM     20  HN  UNL     1       4.836  -0.005  -1.289  1.00  0.00     0.189 HD
HETATM   21  C   UNL     1       6.503   2.116   0.424  1.00  0.00     0.160 A 
ATOM     22  HN  UNL     1       7.215   0.798  -1.001  1.00  0.00     0.186 HD
HETATM   23  S   UNL     1       5.003   2.578   1.123  1.00  0.00    -0.046 SA
ENDBRANCH   4  17
TORSDOF 4
