REMARK  6 active torsions:
REMARK  status: ('A' for Active; 'I' for Inactive)
REMARK    1  A    between atoms: C_8  and  C_9 
REMARK    2  A    between atoms: C_9  and  N_10 
REMARK    3  A    between atoms: N_10  and  C_11 
REMARK    4  A    between atoms: C_11  and  C_12 
REMARK    5  A    between atoms: C_12  and  N_13 
REMARK    6  A    between atoms: C_19  and  C_20 
ROOT
HETATM    1  C   UNL     1      -0.293  -3.383  -0.059  1.00  0.00     0.289 C 
ENDROOT
BRANCH   1   2
HETATM    2  N   UNL     1       0.860  -2.560   0.322  1.00  0.00     0.085 N 
HETATM    3  H   UNL     1       0.537  -1.719   0.807  1.00  0.00     0.315 HD
BRANCH   2   4
HETATM    4  C   UNL     1       1.679  -2.158  -0.828  1.00  0.00     0.279 C 
BRANCH   4   5
HETATM    5  C   UNL     1       2.860  -1.224  -0.455  1.00  0.00     0.045 C 
HETATM    6  C   UNL     1       4.044  -1.920   0.304  1.00  0.00    -0.009 C 
HETATM    7  C   UNL     1       3.969  -3.455   0.428  1.00  0.00     0.011 C 
HETATM    8  C   UNL     1       4.484  -1.336   1.658  1.00  0.00     0.009 C 
HETATM    9  C   UNL     1       3.826  -0.064   2.171  1.00  0.00     0.028 C 
HETATM   10  C   UNL     1       2.821   0.583   1.292  1.00  0.00    -0.024 C 
HETATM   11  C   UNL     1       2.374   0.097   0.128  1.00  0.00    -0.081 C 
HETATM   12  C   UNL     1       1.356   0.874  -0.668  1.00  0.00     0.043 C 
ENDBRANCH   4   5
ENDBRANCH   2   4
ENDBRANCH   1   2
BRANCH   1  13
HETATM   13  C   UNL     1       0.114  -4.692  -0.748  1.00  0.00     0.161 C 
BRANCH  13  14
HETATM   14  N   UNL     1      -0.999  -5.553  -1.056  1.00  0.00    -0.329 N 
HETATM   15  C   UNL     1      -1.465  -6.501  -0.187  1.00  0.00     0.201 A 
HETATM   16  N   UNL     1      -2.403  -7.204  -0.767  1.00  0.00    -0.295 N 
HETATM   17  N   UNL     1      -2.551  -6.717  -2.039  1.00  0.00    -0.288 N 
ATOM     18  HN  UNL     1      -2.927  -7.973  -0.349  1.00  0.00     0.187 HD
HETATM   19  C   UNL     1      -1.706  -5.718  -2.218  1.00  0.00     0.103 A 
ATOM     20  HN  UNL     1      -3.208  -7.069  -2.735  1.00  0.00     0.188 HD
BRANCH  19  21
HETATM   21  C   UNL     1      -1.698  -4.995  -3.562  1.00  0.00     0.055 A 
HETATM   22  C   UNL     1      -0.482  -4.350  -4.180  1.00  0.00     0.013 A 
HETATM   23  C   UNL     1      -1.566  -3.491  -3.627  1.00  0.00     0.013 A 
ENDBRANCH  19  21
ENDBRANCH  13  14
ENDBRANCH   1  13
TORSDOF 6
