REMARK  6 active torsions:
REMARK  status: ('A' for Active; 'I' for Inactive)
REMARK    1  A    between atoms: C_6  and  O_7 
REMARK    2  A    between atoms: O_7  and  C_8 
REMARK    3  A    between atoms: C_8  and  C_9 
REMARK    4  A    between atoms: C_9  and  O_10 
REMARK    5  A    between atoms: C_9  and  C_11 
REMARK    6  A    between atoms: C_11  and  N_12 
ROOT
HETATM    1  C   UNL     1       5.452  -4.776  -0.483  1.00  0.00     0.161 C 
ENDROOT
BRANCH   1   2
HETATM    2  C   UNL     1       4.447  -3.626  -0.250  1.00  0.00     0.209 C 
BRANCH   2   3
HETATM    3  O   UNL     1       5.163  -2.389  -0.190  1.00  0.00    -0.349 OA
BRANCH   3   4
HETATM    4  C   UNL     1       4.435  -1.246   0.004  1.00  0.00     0.069 A 
HETATM    5  C   UNL     1       5.191  -0.071   0.044  1.00  0.00     0.037 A 
HETATM    6  C   UNL     1       4.576   1.166   0.236  1.00  0.00     0.003 A 
HETATM    7  C   UNL     1       3.193   1.241   0.384  1.00  0.00     0.007 A 
HETATM    8  C   UNL     1       2.418   0.077   0.339  1.00  0.00    -0.059 A 
HETATM    9  C   UNL     1       0.926   0.142   0.487  1.00  0.00     0.048 C 
HETATM   10  C   UNL     1       3.049  -1.167   0.158  1.00  0.00     0.043 A 
ENDBRANCH   3   4
ENDBRANCH   2   3
ENDBRANCH   1   2
BRANCH   1  11
HETATM   11  O   UNL     1       6.396  -4.853   0.597  1.00  0.00    -0.392 OA
HETATM   12  H   UNL     1       5.997  -4.463   1.393  1.00  0.00     0.210 HD
ENDBRANCH   1  11
BRANCH   1  13
HETATM   13  C   UNL     1       4.716  -6.122  -0.593  1.00  0.00     0.166 C 
BRANCH  13  14
HETATM   14  N   UNL     1       5.626  -7.237  -0.846  1.00  0.00    -0.307 N 
HETATM   15  C   UNL     1       6.253  -7.861   0.203  1.00  0.00     0.186 A 
HETATM   16  N   UNL     1       7.079  -8.846   0.097  1.00  0.00    -0.355 N 
HETATM   17  C   UNL     1       7.392  -9.275  -1.165  1.00  0.00     0.017 A 
ATOM     18  HN  UNL     1       7.484  -9.289   0.922  1.00  0.00     0.166 HD
HETATM   19  C   UNL     1       8.389 -10.405  -1.205  1.00  0.00     0.069 C 
HETATM   20  C   UNL     1       6.881  -8.733  -2.290  1.00  0.00     0.028 A 
HETATM   21  C   UNL     1       7.226  -9.113  -3.695  1.00  0.00     0.056 C 
HETATM   22  C   UNL     1       5.886  -7.636  -2.136  1.00  0.00     0.256 A 
HETATM   23  O   UNL     1       5.339  -7.142  -3.120  1.00  0.00    -0.267 OA
ENDBRANCH  13  14
ENDBRANCH   1  13
TORSDOF 6
