REMARK  4 active torsions:
REMARK  status: ('A' for Active; 'I' for Inactive)
REMARK    1  A    between atoms: O_2  and  C_3 
REMARK    2  A    between atoms: C_3  and  C_4 
REMARK    3  A    between atoms: C_4  and  N_5 
REMARK       I    between atoms: N_5  and  C_6 
REMARK       I    between atoms: C_6  and  N_8 
REMARK    4  A    between atoms: N_8  and  C_9 
ROOT
HETATM    1  N   UNL     1       5.204  -1.437   1.830  1.00  0.00    -0.340 N 
HETATM    2  C   UNL     1       6.400  -1.104   2.387  1.00  0.00     0.323 C 
HETATM    3  O   UNL     1       6.892   0.018   2.278  1.00  0.00    -0.247 OA
HETATM    4  N   UNL     1       7.048  -2.055   3.108  1.00  0.00    -0.274 N 
HETATM    5  H   UNL     1       4.783  -2.324   2.108  1.00  0.00     0.164 HD
HETATM    6  H   UNL     1       7.895  -1.775   3.572  1.00  0.00     0.174 HD
ENDROOT
BRANCH   1   7
HETATM    7  C   UNL     1       4.380  -0.473   1.138  1.00  0.00     0.162 C 
BRANCH   7   8
HETATM    8  C   UNL     1       3.034  -1.136   0.813  1.00  0.00     0.076 C 
HETATM    9  C   UNL     1       2.106  -0.256  -0.076  1.00  0.00     0.040 C 
HETATM   10  C   UNL     1       2.634  -0.999  -1.314  1.00  0.00     0.006 C 
HETATM   11  C   UNL     1       3.082  -2.138  -0.386  1.00  0.00     0.040 C 
BRANCH   8  12
HETATM   12  O   UNL     1       2.412  -1.711   2.000  1.00  0.00    -0.383 OA
HETATM   13  C   UNL     1       1.999  -0.819   3.026  1.00  0.00     0.202 C 
ENDBRANCH   8  12
ENDBRANCH   7   8
ENDBRANCH   1   7
BRANCH   4  14
HETATM   14  C   UNL     1       6.642  -3.343   3.250  1.00  0.00     0.231 A 
HETATM   15  N   UNL     1       5.629  -3.970   2.688  1.00  0.00    -0.330 N 
HETATM   16  C   UNL     1       5.696  -5.236   3.206  1.00  0.00     0.116 A 
ATOM     17  HN  UNL     1       4.952  -3.599   2.022  1.00  0.00     0.168 HD
HETATM   18  C   UNL     1       6.734  -5.317   4.098  1.00  0.00     0.162 A 
HETATM   19  O   UNL     1       7.367  -4.109   4.118  1.00  0.00    -0.290 OA
ENDBRANCH   4  14
TORSDOF 4
