REMARK  4 active torsions:
REMARK  status: ('A' for Active; 'I' for Inactive)
REMARK    1  A    between atoms: C_1  and  C_2 
REMARK    2  A    between atoms: C_1  and  N_9 
REMARK    3  A    between atoms: C_2  and  N_3 
REMARK    4  A    between atoms: N_9  and  C_10 
ROOT
HETATM    1  N   UNL     1       2.369   0.108   0.022  1.00  0.00     0.089 N 
HETATM    2  H   UNL     1       3.095   0.361  -0.651  1.00  0.00     0.316 HD
ENDROOT
BRANCH   1   3
HETATM    3  C   UNL     1       1.092   0.727  -0.371  1.00  0.00     0.291 C 
BRANCH   3   4
HETATM    4  C   UNL     1       0.598   0.266  -1.743  1.00  0.00     0.178 C 
BRANCH   4   5
HETATM    5  N   UNL     1      -0.600   1.004  -2.111  1.00  0.00    -0.302 N 
HETATM    6  C   UNL     1      -1.892   0.656  -1.836  1.00  0.00     0.111 A 
HETATM    7  C   UNL     1      -2.668   1.704  -2.275  1.00  0.00     0.037 A 
HETATM    8  C   UNL     1      -1.752   2.633  -2.800  1.00  0.00     0.108 A 
HETATM    9  N   UNL     1      -0.489   2.210  -2.702  1.00  0.00    -0.310 N 
ATOM     10  HN  UNL     1       0.360   2.688  -3.004  1.00  0.00     0.186 HD
ENDBRANCH   4   5
ENDBRANCH   3   4
ENDBRANCH   1   3
BRANCH   1  11
HETATM   11  C   UNL     1       2.797   0.513   1.380  1.00  0.00     0.220 C 
HETATM   12  C   UNL     1       3.165   2.011   1.453  1.00  0.00     0.035 C 
HETATM   13  C   UNL     1       3.240   2.526   2.888  1.00  0.00     0.002 C 
HETATM   14  C   UNL     1       4.606   2.400   3.546  1.00  0.00     0.000 C 
HETATM   15  C   UNL     1       5.397   1.132   3.245  1.00  0.00     0.000 C 
HETATM   16  C   UNL     1       4.566  -0.147   3.163  1.00  0.00     0.002 C 
HETATM   17  C   UNL     1       3.976  -0.398   1.772  1.00  0.00     0.035 C 
ENDBRANCH   1  11
TORSDOF 4
