REMARK  6 active torsions:
REMARK  status: ('A' for Active; 'I' for Inactive)
REMARK    1  A    between atoms: N_2  and  C_16 
REMARK    2  A    between atoms: C_3  and  N_7 
REMARK    3  A    between atoms: N_7  and  C_9 
REMARK    4  A    between atoms: C_16  and  C_18 
REMARK    5  A    between atoms: N_17  and  C_28 
REMARK    6  A    between atoms: C_18  and  O_24 
ROOT
HETATM    1  C   UNL     1      -1.674  -0.670   0.980  1.00  0.00     0.122 A 
HETATM    2  N   UNL     1      -2.471   1.273   1.608  1.00  0.00    -0.324 N 
HETATM    3  C   UNL     1      -0.815  -1.520   0.234  1.00  0.00     0.135 A 
HETATM    4  C   UNL     1      -1.558   0.695   0.766  1.00  0.00     0.140 A 
HETATM    5  N   UNL     1      -2.635  -0.918   1.947  1.00  0.00    -0.346 N 
ATOM      6  HN  UNL     1      -2.925  -1.825   2.313  1.00  0.00     0.167 HD
HETATM    7  C   UNL     1      -3.094   0.265   2.292  1.00  0.00     0.185 A 
HETATM    8  N   UNL     1       0.042  -0.905  -0.636  1.00  0.00    -0.337 N 
ATOM      9  HN  UNL     1       0.687  -1.460  -1.198  1.00  0.00     0.168 HD
HETATM   10  N   UNL     1      -0.724   1.330  -0.075  1.00  0.00    -0.336 N 
ATOM     11  HN  UNL     1      -0.670   2.342  -0.188  1.00  0.00     0.168 HD
HETATM   12  C   UNL     1       0.030   0.440  -0.748  1.00  0.00     0.183 A 
ENDROOT
BRANCH   3  13
HETATM   13  N   UNL     1      -0.764  -2.913   0.400  1.00  0.00    -0.364 N 
HETATM   14  C   UNL     1      -2.034  -3.596   0.193  1.00  0.00     0.151 C 
BRANCH  13  15
HETATM   15  C   UNL     1       0.518  -3.565   0.042  1.00  0.00     0.092 C 
HETATM   16  C   UNL     1       0.615  -4.000  -1.438  1.00  0.00     0.033 C 
HETATM   17  C   UNL     1       0.230  -5.476  -1.657  1.00  0.00     0.278 C 
HETATM   18  C   UNL     1       2.011  -3.674  -1.992  1.00  0.00     0.014 C 
HETATM   19  N   UNL     1       0.797  -6.458  -0.732  1.00  0.00     0.088 N 
HETATM   20  C   UNL     1       0.463  -6.086   0.647  1.00  0.00     0.274 C 
HETATM   21  C   UNL     1       0.887  -4.675   1.044  1.00  0.00     0.056 C 
BRANCH  19  22
HETATM   22  C   UNL     1       2.217  -6.781  -0.905  1.00  0.00     0.268 C 
HETATM   23  C   UNL     1       2.570  -7.334  -2.284  1.00  0.00     0.037 C 
ENDBRANCH  19  22
ENDBRANCH  13  15
ENDBRANCH   3  13
BRANCH   2  24
HETATM   24  C   UNL     1      -2.812   2.681   1.673  1.00  0.00     0.171 C 
BRANCH  24  25
HETATM   25  C   UNL     1      -2.026   3.506   2.705  1.00  0.00     0.097 C 
HETATM   26  C   UNL     1      -2.084   3.009   4.138  1.00  0.00     0.068 C 
HETATM   27  C   UNL     1      -1.873   4.273   4.955  1.00  0.00     0.170 C 
HETATM   28  O   UNL     1      -2.331   5.379   4.170  1.00  0.00    -0.388 OA
HETATM   29  C   UNL     1      -2.644   4.903   2.852  1.00  0.00     0.207 C 
BRANCH  25  30
HETATM   30  O   UNL     1      -0.654   3.659   2.318  1.00  0.00    -0.386 OA
HETATM   31  H   UNL     1      -0.330   2.830   1.919  1.00  0.00     0.210 HD
ENDBRANCH  25  30
ENDBRANCH  24  25
ENDBRANCH   2  24
TORSDOF 6
