REMARK  4 active torsions:
REMARK  status: ('A' for Active; 'I' for Inactive)
REMARK    1  A    between atoms: N_6  and  C_7 
REMARK    2  A    between atoms: C_7  and  C_8 
REMARK    3  A    between atoms: C_8  and  N_9 
REMARK       I    between atoms: N_9  and  C_10 
REMARK       I    between atoms: C_10  and  N_12 
REMARK    4  A    between atoms: N_12  and  C_13 
ROOT
HETATM    1  N   UNL     1       2.931  -5.037  -3.785  1.00  0.00    -0.341 N 
HETATM    2  C   UNL     1       2.028  -5.959  -3.349  1.00  0.00     0.321 C 
HETATM    3  O   UNL     1       1.024  -5.725  -2.704  1.00  0.00    -0.247 OA
HETATM    4  N   UNL     1       2.410  -7.279  -3.721  1.00  0.00    -0.293 N 
HETATM    5  H   UNL     1       3.685  -5.280  -4.404  1.00  0.00     0.164 HD
HETATM    6  H   UNL     1       3.334  -7.450  -4.078  1.00  0.00     0.172 HD
ENDROOT
BRANCH   1   7
HETATM    7  C   UNL     1       2.652  -3.622  -3.561  1.00  0.00     0.154 C 
BRANCH   7   8
HETATM    8  C   UNL     1       3.081  -3.130  -2.161  1.00  0.00     0.292 C 
BRANCH   8   9
HETATM    9  N   UNL     1       2.680  -1.741  -1.863  1.00  0.00     0.090 N 
HETATM   10  C   UNL     1       3.267  -0.772  -2.802  1.00  0.00     0.272 C 
HETATM   11  C   UNL     1       2.848   0.666  -2.496  1.00  0.00     0.031 C 
HETATM   12  C   UNL     1       3.156   1.045  -1.054  1.00  0.00     0.007 C 
HETATM   13  C   UNL     1       2.579   0.019  -0.073  1.00  0.00     0.010 C 
HETATM   14  C   UNL     1       1.053   0.121   0.019  1.00  0.00     0.011 C 
HETATM   15  C   UNL     1       3.032  -1.398  -0.470  1.00  0.00     0.276 C 
ENDBRANCH   8   9
ENDBRANCH   7   8
ENDBRANCH   1   7
BRANCH   4  16
HETATM   16  C   UNL     1       1.544  -8.357  -3.541  1.00  0.00     0.127 A 
HETATM   17  C   UNL     1       0.179  -8.305  -3.361  1.00  0.00     0.076 A 
HETATM   18  C   UNL     1      -0.242  -9.642  -3.211  1.00  0.00     0.025 A 
HETATM   19  C   UNL     1      -1.616 -10.129  -2.940  1.00  0.00     0.070 C 
HETATM   20  N   UNL     1       0.781 -10.493  -3.333  1.00  0.00    -0.302 N 
HETATM   21  N   UNL     1       1.852  -9.698  -3.523  1.00  0.00    -0.281 N 
ATOM     22  HN  UNL     1       0.757 -11.512  -3.292  1.00  0.00     0.186 HD
HETATM   23  C   UNL     1       3.157 -10.309  -3.583  1.00  0.00     0.179 C 
ENDBRANCH   4  16
TORSDOF 4
