REMARK  4 active torsions:
REMARK  status: ('A' for Active; 'I' for Inactive)
REMARK    1  A    between atoms: C_2  and  C_3 
REMARK    2  A    between atoms: C_3  and  C_4 
REMARK    3  A    between atoms: C_4  and  N_5 
REMARK       I    between atoms: N_5  and  C_6 
REMARK       I    between atoms: C_6  and  N_8 
REMARK    4  A    between atoms: N_8  and  C_9 
ROOT
HETATM    1  N   UNL     1       3.185   1.153   3.541  1.00  0.00    -0.342 N 
HETATM    2  C   UNL     1       2.908   0.503   4.728  1.00  0.00     0.320 C 
HETATM    3  O   UNL     1       2.439  -0.632   4.720  1.00  0.00    -0.247 OA
HETATM    4  N   UNL     1       3.208   1.217   5.855  1.00  0.00    -0.306 N 
HETATM    5  H   UNL     1       3.294   2.153   3.519  1.00  0.00     0.164 HD
HETATM    6  H   UNL     1       3.344   2.214   5.767  1.00  0.00     0.171 HD
ENDROOT
BRANCH   1   7
HETATM    7  C   UNL     1       2.780   0.433   2.355  1.00  0.00     0.133 C 
BRANCH   7   8
HETATM    8  C   UNL     1       3.055   1.052   1.006  1.00  0.00    -0.025 A 
HETATM    9  C   UNL     1       2.904   2.549   0.810  1.00  0.00     0.012 A 
HETATM   10  C   UNL     1       4.272   1.923   0.774  1.00  0.00     0.012 A 
BRANCH   8  11
HETATM   11  C   UNL     1       2.589   0.163  -0.146  1.00  0.00     0.006 C 
HETATM   12  C   UNL     1       3.308  -1.181  -0.189  1.00  0.00     0.006 C 
ENDBRANCH   8  11
ENDBRANCH   7   8
ENDBRANCH   1   7
BRANCH   4  13
HETATM   13  C   UNL     1       3.053   0.708   7.175  1.00  0.00     0.077 A 
HETATM   14  C   UNL     1       2.932  -0.654   7.463  1.00  0.00     0.050 A 
HETATM   15  C   UNL     1       2.722  -1.053   8.775  1.00  0.00     0.090 A 
HETATM   16  N   UNL     1       2.648  -0.197   9.814  1.00  0.00    -0.372 N 
HETATM   17  C   UNL     1       2.802   1.116   9.521  1.00  0.00     0.132 A 
ATOM     18  HN  UNL     1       2.485  -0.520  10.768  1.00  0.00     0.164 HD
HETATM   19  C   UNL     1       3.012   1.603   8.240  1.00  0.00     0.158 A 
HETATM   20  F   UNL     1       3.145   2.922   8.031  1.00  0.00    -0.202 F 
ENDBRANCH   4  13
TORSDOF 4
