REMARK  7 active torsions:
REMARK  status: ('A' for Active; 'I' for Inactive)
REMARK    1  A    between atoms: N_2  and  C1*_4 
REMARK    2  A    between atoms: C_7  and  N_15 
REMARK    3  A    between atoms: C2*_12  and  O2*_21 
REMARK       I    between atoms: N_15  and  C_18 
REMARK    4  A    between atoms: C3*_16  and  O3*_23 
REMARK    5  A    between atoms: C4*_17  and  C5*_24 
REMARK    6  A    between atoms: C_18  and  C_22 
REMARK    7  A    between atoms: C5*_24  and  O5*_25 
ROOT
HETATM    1  C   UNL     1       3.727  -0.786  -1.428  1.00  0.00     0.159 A 
HETATM    2  N   UNL     1       3.234  -2.007  -1.050  1.00  0.00    -0.297 N 
HETATM    3  C   UNL     1       4.747  -1.091  -2.309  1.00  0.00     0.147 A 
HETATM    4  N   UNL     1       3.275   0.449  -1.067  1.00  0.00    -0.173 N 
ATOM      5  HN  UNL     1       2.519   0.604  -0.400  1.00  0.00     0.186 HD
HETATM    6  C   UNL     1       3.919   1.412  -1.672  1.00  0.00     0.689 A 
HETATM    7  N   UNL     1       4.962   1.219  -2.550  1.00  0.00    -0.154 N 
HETATM    8  N   UNL     1       4.890  -2.440  -2.487  1.00  0.00    -0.345 N 
ATOM      9  HN  UNL     1       5.569  -2.926  -3.073  1.00  0.00     0.167 HD
HETATM   10  C   UNL     1       5.463  -0.008  -2.939  1.00  0.00     0.290 A 
HETATM   11  C   UNL     1       3.954  -2.966  -1.731  1.00  0.00     0.188 A 
HETATM   12  O   UNL     1       6.392  -0.127  -3.723  1.00  0.00    -0.265 OA
HETATM   13  H   UNL     1       5.409   2.029  -2.971  1.00  0.00     0.187 HD
ENDROOT
BRANCH   2  14
HETATM   14  C1* UNL     1       2.138  -2.344  -0.171  1.00  0.00     0.262 C 
HETATM   15  C2* UNL     1       1.772  -1.379   0.956  1.00  0.00     0.198 C 
HETATM   16  C3* UNL     1       0.594  -0.582   0.397  1.00  0.00     0.182 C 
HETATM   17  C4* UNL     1       0.121  -1.359  -0.834  1.00  0.00     0.179 C 
HETATM   18  O4* UNL     1       0.960  -2.524  -0.977  1.00  0.00    -0.353 OA
BRANCH  15  19
HETATM   19  O2* UNL     1       1.362  -2.093   2.144  1.00  0.00    -0.388 OA
HETATM   20  H2* UNL     1       0.899  -2.910   1.886  1.00  0.00     0.210 HD
ENDBRANCH  15  19
BRANCH  16  21
HETATM   21  O3* UNL     1      -0.474  -0.450   1.339  1.00  0.00    -0.390 OA
HETATM   22  H3* UNL     1      -0.477  -1.252   1.892  1.00  0.00     0.210 HD
ENDBRANCH  16  21
BRANCH  17  23
HETATM   23  C5* UNL     1       0.195  -0.513  -2.113  1.00  0.00     0.198 C 
BRANCH  23  24
HETATM   24  O5* UNL     1      -0.303  -1.246  -3.229  1.00  0.00    -0.398 OA
HETATM   25  H5* UNL     1       0.312  -1.992  -3.364  1.00  0.00     0.209 HD
ENDBRANCH  23  24
ENDBRANCH  17  23
ENDBRANCH   2  14
BRANCH   6  26
HETATM   26  N   UNL     1       3.545   2.722  -1.449  1.00  0.00    -0.159 N 
HETATM   27  C   UNL     1       4.142   3.832  -2.027  1.00  0.00     0.239 C 
HETATM   28  O   UNL     1       5.102   3.731  -2.793  1.00  0.00    -0.272 OA
HETATM   29  H   UNL     1       2.757   2.848  -0.828  1.00  0.00     0.187 HD
BRANCH  27  30
HETATM   30  C   UNL     1       3.524   5.188  -1.698  1.00  0.00     0.070 C 
HETATM   31  C   UNL     1       3.563   5.482  -0.203  1.00  0.00     0.019 C 
HETATM   32  C   UNL     1       4.277   6.287  -2.460  1.00  0.00     0.019 C 
ENDBRANCH  27  30
ENDBRANCH   6  26
TORSDOF 7
