REMARK  5 active torsions:
REMARK  status: ('A' for Active; 'I' for Inactive)
REMARK    1  A    between atoms: C_2  and  C_3 
REMARK    2  A    between atoms: C_2  and  N_5 
REMARK    3  A    between atoms: C_2  and  C_16 
REMARK    4  A    between atoms: C_3  and  O_4 
REMARK       I    between atoms: N_5  and  C_6 
REMARK       I    between atoms: C_6  and  N_8 
REMARK    5  A    between atoms: N_8  and  C_9 
ROOT
HETATM    1  N   UNL     1       2.944   1.330   0.659  1.00  0.00    -0.331 N 
HETATM    2  C   UNL     1       4.277   1.683   0.650  1.00  0.00     0.322 C 
HETATM    3  O   UNL     1       5.129   1.029   0.072  1.00  0.00    -0.247 OA
HETATM    4  N   UNL     1       4.511   2.835   1.359  1.00  0.00    -0.288 N 
HETATM    5  H   UNL     1       2.362   1.715   1.386  1.00  0.00     0.165 HD
HETATM    6  H   UNL     1       3.760   3.477   1.545  1.00  0.00     0.172 HD
ENDROOT
BRANCH   1   7
HETATM    7  C   UNL     1       2.448   0.095  -0.024  1.00  0.00     0.055 C 
HETATM    8  C   UNL     1       0.909   0.086   0.099  1.00  0.00     0.041 C 
BRANCH   7   9
HETATM    9  C   UNL     1       2.758   0.202  -1.559  1.00  0.00     0.195 C 
BRANCH   9  10
HETATM   10  O   UNL     1       2.141   1.362  -2.137  1.00  0.00    -0.398 OA
HETATM   11  H   UNL     1       1.383   1.056  -2.663  1.00  0.00     0.209 HD
ENDBRANCH   9  10
ENDBRANCH   7   9
BRANCH   7  12
HETATM   12  C   UNL     1       3.150  -1.188   0.600  1.00  0.00     0.015 C 
HETATM   13  C   UNL     1       2.743  -2.565   0.044  1.00  0.00     0.007 C 
HETATM   14  C   UNL     1       1.480  -3.170   0.646  1.00  0.00     0.000 C 
HETATM   15  C   UNL     1       1.402  -3.089   2.167  1.00  0.00     0.000 C 
HETATM   16  C   UNL     1       1.879  -1.774   2.770  1.00  0.00     0.000 C 
HETATM   17  C   UNL     1       3.167  -1.262   2.143  1.00  0.00     0.007 C 
ENDBRANCH   7  12
ENDBRANCH   1   7
BRANCH   4  18
HETATM   18  C   UNL     1       5.800   3.285   1.513  1.00  0.00     0.168 A 
HETATM   19  N   UNL     1       6.934   2.659   1.304  1.00  0.00    -0.279 N 
HETATM   20  N   UNL     1       8.026   3.462   1.560  1.00  0.00    -0.303 N 
ATOM     21  HN  UNL     1       7.000   1.691   0.989  1.00  0.00     0.189 HD
HETATM   22  C   UNL     1       7.657   4.659   1.964  1.00  0.00     0.160 A 
ATOM     23  HN  UNL     1       8.996   3.166   1.450  1.00  0.00     0.186 HD
HETATM   24  S   UNL     1       5.958   4.880   2.095  1.00  0.00    -0.046 SA
ENDBRANCH   4  18
TORSDOF 5
