REMARK  3 active torsions:
REMARK  status: ('A' for Active; 'I' for Inactive)
REMARK    1  A    between atoms: N_6  and  C_7 
REMARK    2  A    between atoms: C_7  and  C_8 
REMARK       I    between atoms: C_8  and  N_10 
REMARK    3  A    between atoms: N_10  and  C_11 
ROOT
HETATM    1  C   UNL     1       5.659  -1.670  -0.080  1.00  0.00     0.256 C 
ENDROOT
BRANCH   1   2
HETATM    2  N   UNL     1       7.080  -1.490   0.087  1.00  0.00    -0.233 N 
HETATM    3  N   UNL     1       7.979  -1.540  -0.956  1.00  0.00    -0.289 N 
HETATM    4  C   UNL     1       9.088  -1.142  -0.417  1.00  0.00     0.204 A 
ATOM      5  HN  UNL     1       7.812  -1.823  -1.922  1.00  0.00     0.188 HD
HETATM    6  N   UNL     1       9.014  -0.836   0.890  1.00  0.00    -0.298 N 
HETATM    7  C   UNL     1      10.064  -0.398   1.770  1.00  0.00     0.162 C 
HETATM    8  C   UNL     1       7.704  -1.031   1.252  1.00  0.00     0.344 A 
HETATM    9  O   UNL     1       7.199  -0.826   2.338  1.00  0.00    -0.245 OA
ENDBRANCH   1   2
BRANCH   1  10
HETATM   10  C   UNL     1       5.174  -3.083   0.208  1.00  0.00     0.237 C 
HETATM   11  O   UNL     1       4.012  -3.284   0.565  1.00  0.00    -0.272 OA
HETATM   12  N   UNL     1       6.027  -4.121  -0.121  1.00  0.00    -0.355 N 
HETATM   13  H   UNL     1       6.995  -3.890  -0.324  1.00  0.00     0.162 HD
BRANCH  12  14
HETATM   14  C   UNL     1       5.618  -5.487   0.123  1.00  0.00     0.084 C 
HETATM   15  C   UNL     1       5.954  -5.981   1.530  1.00  0.00     0.025 C 
HETATM   16  C   UNL     1       5.933  -7.509   1.424  1.00  0.00     0.002 C 
HETATM   17  C   UNL     1       5.822  -7.825  -0.069  1.00  0.00     0.002 C 
HETATM   18  C   UNL     1       6.266  -6.542  -0.766  1.00  0.00     0.025 C 
ENDBRANCH  12  14
ENDBRANCH   1  10
TORSDOF 3
