REMARK  7 active torsions:
REMARK  status: ('A' for Active; 'I' for Inactive)
REMARK    1  A    between atoms: N_10  and  C_11 
REMARK    2  A    between atoms: C_11  and  C_12 
REMARK    3  A    between atoms: C_12  and  O_13 
REMARK    4  A    between atoms: C_12  and  C_14 
REMARK    5  A    between atoms: C_14  and  O_15 
REMARK    6  A    between atoms: O_15  and  C_16 
REMARK    7  A    between atoms: C_16  and  C_17 
ROOT
HETATM    1  C   UNL     1       5.391   3.642   0.055  1.00  0.00     0.183 C 
ENDROOT
BRANCH   1   2
HETATM    2  N   UNL     1       6.277   4.038   1.141  1.00  0.00    -0.284 N 
HETATM    3  N   UNL     1       5.756   4.218   2.389  1.00  0.00    -0.308 N 
HETATM    4  C   UNL     1       6.826   4.333   3.180  1.00  0.00     0.122 A 
ATOM      5  HN  UNL     1       4.773   4.256   2.657  1.00  0.00     0.186 HD
HETATM    6  C   UNL     1       8.016   4.244   2.455  1.00  0.00     0.032 A 
HETATM    7  C   UNL     1       9.398   4.256   2.812  1.00  0.00     0.122 A 
HETATM    8  C   UNL     1       7.643   4.088   1.142  1.00  0.00     0.133 A 
HETATM    9  N   UNL     1      10.317   4.109   1.903  1.00  0.00    -0.306 N 
HETATM   10  N   UNL     1       9.936   3.959   0.558  1.00  0.00    -0.261 N 
ATOM     11  HN  UNL     1      11.303   4.103   2.163  1.00  0.00     0.186 HD
HETATM   12  C   UNL     1      11.019   3.758  -0.385  1.00  0.00     0.181 C 
HETATM   13  C   UNL     1       8.603   3.950   0.085  1.00  0.00     0.290 A 
HETATM   14  O   UNL     1       8.302   3.830  -1.098  1.00  0.00    -0.264 OA
ENDBRANCH   1   2
BRANCH   1  15
HETATM   15  C   UNL     1       3.933   4.133   0.190  1.00  0.00     0.161 C 
BRANCH  15  16
HETATM   16  O   UNL     1       3.308   3.665   1.390  1.00  0.00    -0.392 OA
HETATM   17  H   UNL     1       3.933   3.885   2.118  1.00  0.00     0.210 HD
ENDBRANCH  15  16
BRANCH  15  18
HETATM   18  C   UNL     1       3.811   5.655   0.085  1.00  0.00     0.201 C 
BRANCH  18  19
HETATM   19  O   UNL     1       4.295   6.044  -1.195  1.00  0.00    -0.384 OA
BRANCH  19  20
HETATM   20  C   UNL     1       4.188   7.446  -1.424  1.00  0.00     0.208 C 
BRANCH  20  21
HETATM   21  C   UNL     1       4.705   7.795  -2.801  1.00  0.00    -0.013 A 
HETATM   22  C   UNL     1       5.176   6.798  -3.677  1.00  0.00     0.011 A 
HETATM   23  C   UNL     1       5.661   7.120  -4.946  1.00  0.00     0.001 A 
HETATM   24  C   UNL     1       5.683   8.447  -5.364  1.00  0.00     0.002 A 
HETATM   25  C   UNL     1       5.216   9.449  -4.515  1.00  0.00     0.024 A 
HETATM   26  C   UNL     1       4.730   9.127  -3.243  1.00  0.00     0.042 A 
HETATM   27 CL   UNL     1       4.168  10.423  -2.247  1.00  0.00    -0.084 Cl
ENDBRANCH  20  21
ENDBRANCH  19  20
ENDBRANCH  18  19
ENDBRANCH  15  18
ENDBRANCH   1  15
TORSDOF 7
