REMARK  6 active torsions:
REMARK  status: ('A' for Active; 'I' for Inactive)
REMARK    1  A    between atoms: C_2  and  N_3 
REMARK       I    between atoms: N_6  and  C_9 
REMARK    2  A    between atoms: C_9  and  C_11 
REMARK    3  A    between atoms: C_11  and  N_13 
REMARK    4  A    between atoms: N_13  and  C_14 
REMARK    5  A    between atoms: C_14  and  C_15 
REMARK    6  A    between atoms: C_15  and  N_16 
ROOT
HETATM    1  C   UNL     1       1.507  -5.840  -0.989  1.00  0.00     0.307 C 
HETATM    2  C   UNL     1       1.481  -5.513  -2.478  1.00  0.00     0.053 C 
ENDROOT
BRANCH   1   3
HETATM    3  C   UNL     1       2.614  -5.003  -0.302  1.00  0.00     0.253 C 
HETATM    4  N   UNL     1       2.258  -3.798   0.282  1.00  0.00    -0.347 N 
HETATM    5  C   UNL     1       0.952  -3.136   0.192  1.00  0.00     0.156 C 
HETATM    6  C   UNL     1       3.254  -3.048   1.051  1.00  0.00     0.156 C 
HETATM    7  C   UNL     1       1.115  -1.689  -0.311  1.00  0.00     0.292 C 
HETATM    8  N   UNL     1       2.059  -0.865   0.473  1.00  0.00     0.091 N 
HETATM    9  C   UNL     1       3.356  -1.585   0.566  1.00  0.00     0.292 C 
HETATM   10  O   UNL     1       3.776  -5.418  -0.286  1.00  0.00    -0.271 OA
BRANCH   8  11
HETATM   11  C   UNL     1       1.565  -0.505   1.811  1.00  0.00     0.268 C 
HETATM   12  C   UNL     1       0.292   0.335   1.790  1.00  0.00     0.037 C 
ENDBRANCH   8  11
ENDBRANCH   1   3
BRANCH   1  13
HETATM   13  N   UNL     1       1.749  -7.295  -0.799  1.00  0.00     0.098 N 
HETATM   14  H   UNL     1       2.700  -7.476  -1.140  1.00  0.00     0.317 HD
BRANCH  13  15
HETATM   15  C   UNL     1       1.714  -7.700   0.623  1.00  0.00     0.292 C 
BRANCH  15  16
HETATM   16  C   UNL     1       0.371  -7.466   1.318  1.00  0.00     0.178 C 
BRANCH  16  17
HETATM   17  N   UNL     1       0.402  -7.884   2.706  1.00  0.00    -0.302 N 
HETATM   18  C   UNL     1       0.061  -9.108   3.197  1.00  0.00     0.118 A 
HETATM   19  C   UNL     1       0.185  -9.024   4.568  1.00  0.00    -0.028 A 
HETATM   20  C   UNL     1      -0.074 -10.074   5.575  1.00  0.00     0.051 C 
HETATM   21  C   UNL     1       0.612  -7.695   4.792  1.00  0.00     0.115 A 
HETATM   22  N   UNL     1       0.740  -6.999   3.662  1.00  0.00    -0.310 N 
ATOM     23  HN  UNL     1       1.026  -6.027   3.549  1.00  0.00     0.186 HD
ENDBRANCH  16  17
ENDBRANCH  15  16
ENDBRANCH  13  15
ENDBRANCH   1  13
TORSDOF 6
