REMARK  6 active torsions:
REMARK  status: ('A' for Active; 'I' for Inactive)
REMARK    1  A    between atoms: N_4  and  C_9 
REMARK    2  A    between atoms: C_12  and  N_13 
REMARK       I    between atoms: N_13  and  C_14 
REMARK    3  A    between atoms: C_14  and  C_16 
REMARK    4  A    between atoms: C_16  and  O_17 
REMARK    5  A    between atoms: O_17  and  C_18 
REMARK    6  A    between atoms: C_18  and  C_19 
ROOT
HETATM    1  C   UNL     1       1.953   1.372  -3.342  1.00  0.00     0.103 A 
HETATM    2  C   UNL     1       1.157   0.877  -4.370  1.00  0.00     0.051 A 
HETATM    3  C   UNL     1       0.565   1.731  -5.300  1.00  0.00     0.035 A 
HETATM    4  C   UNL     1       0.763   3.096  -5.206  1.00  0.00     0.050 A 
HETATM    5  C   UNL     1       1.547   3.528  -4.147  1.00  0.00     0.119 A 
HETATM    6  N   UNL     1       2.125   2.710  -3.227  1.00  0.00    -0.350 N 
ATOM      7  HN  UNL     1       2.679   3.098  -2.463  1.00  0.00     0.166 HD
ENDROOT
BRANCH   4   8
HETATM    8  N   UNL     1       0.248   4.013  -6.144  1.00  0.00    -0.324 N 
HETATM    9  C   UNL     1      -0.706   3.735  -7.116  1.00  0.00     0.245 C 
HETATM   10  O   UNL     1      -1.387   2.717  -7.195  1.00  0.00    -0.271 OA
HETATM   11  H   UNL     1       0.623   4.956  -6.128  1.00  0.00     0.169 HD
BRANCH   9  12
HETATM   12  C   UNL     1      -0.897   4.877  -8.110  1.00  0.00     0.271 C 
BRANCH  12  13
HETATM   13  O   UNL     1       0.354   5.251  -8.678  1.00  0.00    -0.373 OA
BRANCH  13  14
HETATM   14  C   UNL     1       0.191   6.127  -9.804  1.00  0.00     0.285 C 
BRANCH  14  15
HETATM   15  C   UNL     1       1.508   6.411 -10.532  1.00  0.00     0.408 C 
HETATM   16  F   UNL     1       2.514   5.607 -10.128  1.00  0.00    -0.169 F 
HETATM   17  F   UNL     1       1.362   6.240 -11.867  1.00  0.00    -0.169 F 
HETATM   18  F   UNL     1       1.901   7.691 -10.331  1.00  0.00    -0.169 F 
ENDBRANCH  14  15
ENDBRANCH  13  14
ENDBRANCH  12  13
ENDBRANCH   9  12
ENDBRANCH   4   8
BRANCH   1  19
HETATM   19  N   UNL     1       2.525   0.541  -2.412  1.00  0.00    -0.362 N 
HETATM   20  C   UNL     1       3.256   1.086  -1.264  1.00  0.00     0.156 C 
HETATM   21  C   UNL     1       2.879   0.280   0.004  1.00  0.00     0.136 C 
HETATM   22  C   UNL     1       1.482   0.638   0.512  1.00  0.00     0.041 C 
HETATM   23  O   UNL     1       3.016  -1.149  -0.180  1.00  0.00    -0.378 OA
HETATM   24  C   UNL     1       2.306  -1.636  -1.336  1.00  0.00     0.136 C 
HETATM   25  C   UNL     1       2.757  -0.893  -2.608  1.00  0.00     0.156 C 
HETATM   26  C   UNL     1       2.569  -3.128  -1.469  1.00  0.00     0.041 C 
ENDBRANCH   1  19
TORSDOF 6
