REMARK  5 active torsions:
REMARK  status: ('A' for Active; 'I' for Inactive)
REMARK       I    between atoms: N_2  and  C_3 
REMARK    1  A    between atoms: C_3  and  C_5 
REMARK    2  A    between atoms: C_5  and  C_6 
REMARK    3  A    between atoms: C_6  and  N_7 
REMARK       I    between atoms: N_7  and  C_8 
REMARK       I    between atoms: C_8  and  N_10 
REMARK    4  A    between atoms: N_10  and  C_11 
REMARK    5  A    between atoms: C_17  and  N_18 
ROOT
HETATM    1  N   UNL     1       7.061   2.349  -1.428  1.00  0.00    -0.342 N 
HETATM    2  C   UNL     1       7.610   3.557  -1.805  1.00  0.00     0.320 C 
HETATM    3  O   UNL     1       7.096   4.268  -2.660  1.00  0.00    -0.247 OA
HETATM    4  N   UNL     1       8.797   3.807  -1.155  1.00  0.00    -0.306 N 
HETATM    5  H   UNL     1       7.377   1.915  -0.569  1.00  0.00     0.164 HD
HETATM    6  H   UNL     1       9.247   3.012  -0.745  1.00  0.00     0.171 HD
ENDROOT
BRANCH   4   7
HETATM    7  C   UNL     1       9.626   4.916  -1.452  1.00  0.00     0.080 A 
HETATM    8  C   UNL     1       9.022   6.184  -1.530  1.00  0.00     0.035 A 
HETATM    9  C   UNL     1       9.793   7.317  -1.733  1.00  0.00     0.019 A 
HETATM   10  C   UNL     1      11.150   7.142  -1.857  1.00  0.00     0.090 A 
HETATM   11  N   UNL     1      11.763   5.940  -1.780  1.00  0.00    -0.351 N 
HETATM   12  C   UNL     1      11.031   4.809  -1.589  1.00  0.00     0.130 A 
ATOM     13  HN  UNL     1      12.778   5.880  -1.865  1.00  0.00     0.166 HD
BRANCH  12  14
HETATM   14  N   UNL     1      11.753   3.632  -1.577  1.00  0.00    -0.365 N 
HETATM   15  C   UNL     1      11.262   2.268  -1.685  1.00  0.00     0.124 C 
HETATM   16  C   UNL     1      12.490   1.407  -1.974  1.00  0.00     0.021 C 
HETATM   17  C   UNL     1      13.518   2.377  -2.518  1.00  0.00     0.021 C 
HETATM   18  C   UNL     1      13.198   3.686  -1.806  1.00  0.00     0.124 C 
ENDBRANCH  12  14
ENDBRANCH   4   7
BRANCH   1  19
HETATM   19  C   UNL     1       5.803   1.924  -2.014  1.00  0.00     0.133 C 
BRANCH  19  20
HETATM   20  C   UNL     1       5.200   0.690  -1.362  1.00  0.00     0.122 C 
BRANCH  20  21
HETATM   21  C   UNL     1       4.758   0.986   0.050  1.00  0.00     0.218 C 
HETATM   22  N   UNL     1       3.484   1.498   0.165  1.00  0.00    -0.365 N 
HETATM   23  C   UNL     1       2.938   1.842   1.455  1.00  0.00     0.149 C 
HETATM   24  H   UNL     1       2.932   1.679  -0.660  1.00  0.00     0.161 HD
HETATM   25  O   UNL     1       5.509   0.812   1.006  1.00  0.00    -0.274 OA
ENDBRANCH  20  21
ENDBRANCH  19  20
ENDBRANCH   1  19
TORSDOF 5
