REMARK  4 active torsions:
REMARK  status: ('A' for Active; 'I' for Inactive)
REMARK    1  A    between atoms: C_7  and  N_8 
REMARK       I    between atoms: N_8  and  C_9 
REMARK    2  A    between atoms: C_9  and  C_11 
REMARK    3  A    between atoms: C_11  and  N_12 
REMARK    4  A    between atoms: C_14  and  N_19 
ROOT
HETATM    1  N   UNL     1       2.539  -2.475   0.684  1.00  0.00    -0.355 N 
HETATM    2  C   UNL     1       3.182  -2.616   1.899  1.00  0.00     0.236 C 
HETATM    3  O   UNL     1       4.119  -1.907   2.259  1.00  0.00    -0.272 OA
HETATM    4  H   UNL     1       1.604  -2.870   0.602  1.00  0.00     0.162 HD
ENDROOT
BRANCH   2   5
HETATM    5  C   UNL     1       2.606  -3.703   2.803  1.00  0.00     0.234 C 
BRANCH   5   6
HETATM    6  N   UNL     1       1.663  -3.155   3.775  1.00  0.00    -0.314 N 
HETATM    7  C   UNL     1       2.129  -2.708   5.010  1.00  0.00     0.130 A 
HETATM    8  C   UNL     1       1.270  -2.268   5.947  1.00  0.00     0.118 A 
HETATM    9  C   UNL     1      -0.153  -2.252   5.679  1.00  0.00     0.043 A 
HETATM   10  C   UNL     1      -0.620  -2.645   4.485  1.00  0.00     0.077 A 
HETATM   11  C   UNL     1       0.316  -3.111   3.421  1.00  0.00     0.247 A 
HETATM   12  O   UNL     1      -0.119  -3.434   2.320  1.00  0.00    -0.268 OA
BRANCH   8  13
HETATM   13  N   UNL     1       1.810  -1.854   7.242  1.00  0.00    -0.114 N 
HETATM   14  O   UNL     1       0.995  -1.491   8.103  1.00  0.00    -0.532 OA
HETATM   15  O   UNL     1       3.036  -1.900   7.414  1.00  0.00    -0.532 OA
ENDBRANCH   8  13
ENDBRANCH   5   6
ENDBRANCH   2   5
BRANCH   1  16
HETATM   16  C   UNL     1       2.952  -1.463  -0.280  1.00  0.00     0.088 C 
HETATM   17  C   UNL     1       2.423  -0.053   0.072  1.00  0.00     0.004 C 
HETATM   18  C   UNL     1       0.895   0.010   0.191  1.00  0.00     0.012 C 
HETATM   19  C   UNL     1       2.936   0.963  -0.965  1.00  0.00     0.006 C 
HETATM   20  C   UNL     1       2.606   0.566  -2.404  1.00  0.00     0.001 C 
HETATM   21  C   UNL     1       3.073  -0.850  -2.729  1.00  0.00     0.002 C 
HETATM   22  C   UNL     1       2.580  -1.876  -1.710  1.00  0.00     0.025 C 
ENDBRANCH   1  16
TORSDOF 4
