REMARK  2 active torsions:
REMARK  status: ('A' for Active; 'I' for Inactive)
REMARK       I    between atoms: N_2  and  C_3 
REMARK    1  A    between atoms: C_3  and  C_5 
REMARK    2  A    between atoms: N_7  and  C_11 
ROOT
HETATM    1  C   UNL     1       4.705  -1.163   0.159  1.00  0.00     0.231 C 
HETATM    2  C   UNL     1       5.272   0.167  -0.370  1.00  0.00     0.166 C 
HETATM    3  N   UNL     1       4.949   0.336  -1.798  1.00  0.00    -0.362 N 
HETATM    4  C   UNL     1       5.356  -0.807  -2.626  1.00  0.00     0.150 C 
HETATM    5  C   UNL     1       4.836  -2.118  -2.012  1.00  0.00     0.189 C 
HETATM    6  O   UNL     1       5.222  -2.254  -0.634  1.00  0.00    -0.373 OA
ENDROOT
BRANCH   3   7
HETATM    7  C   UNL     1       4.116   1.355  -2.198  1.00  0.00     0.103 A 
HETATM    8  C   UNL     1       3.771   1.569  -3.531  1.00  0.00     0.048 A 
HETATM    9  C   UNL     1       2.943   2.632  -3.888  1.00  0.00     0.006 A 
HETATM   10  C   UNL     1       2.494   3.501  -2.910  1.00  0.00     0.025 A 
HETATM   11  C   UNL     1       2.881   3.264  -1.602  1.00  0.00     0.007 A 
HETATM   12  C   UNL     1       2.514   4.225  -0.512  1.00  0.00     0.068 C 
HETATM   13  N   UNL     1       3.645   2.197  -1.245  1.00  0.00    -0.346 N 
ATOM     14  HN  UNL     1       3.863   2.030  -0.263  1.00  0.00     0.167 HD
ENDBRANCH   3   7
BRANCH   1  15
HETATM   15  C   UNL     1       3.166  -1.236   0.344  1.00  0.00     0.247 C 
HETATM   16  N   UNL     1       2.500  -0.052   0.590  1.00  0.00    -0.363 N 
HETATM   17  C   UNL     1       1.067  -0.073   0.743  1.00  0.00     0.149 C 
HETATM   18  H   UNL     1       2.895   0.795   0.183  1.00  0.00     0.162 HD
HETATM   19  O   UNL     1       2.568  -2.316   0.335  1.00  0.00    -0.271 OA
ENDBRANCH   1  15
TORSDOF 2
