REMARK  4 active torsions:
REMARK  status: ('A' for Active; 'I' for Inactive)
REMARK    1  A    between atoms: N_1  and  C_9 
REMARK    2  A    between atoms: N_2  and  C_12 
REMARK    3  A    between atoms: S_6  and  N_8 
REMARK    4  A    between atoms: C_9  and  C_10 
REMARK       I    between atoms: C_10  and  N_11 
ROOT
HETATM    1  N   UNL     1      -0.499   1.122  -0.164  1.00  0.00    -0.255 N 
HETATM    2  N   UNL     1       0.709  -0.661   0.832  1.00  0.00    -0.279 N 
HETATM    3  C   UNL     1       0.075   0.576   0.980  1.00  0.00     0.334 C 
HETATM    4  C   UNL     1      -0.146   0.718  -1.451  1.00  0.00     0.292 C 
HETATM    5  C   UNL     1       0.706  -0.486  -1.522  1.00  0.00     0.200 C 
HETATM    6  C   UNL     1       1.062  -1.127  -0.414  1.00  0.00     0.146 C 
HETATM    7  O   UNL     1       0.061   1.153   2.068  1.00  0.00    -0.246 OA
HETATM    8  O   UNL     1      -0.445   1.326  -2.476  1.00  0.00    -0.264 OA
HETATM    9  F   UNL     1       1.120  -0.883  -2.740  1.00  0.00    -0.199 F 
ENDROOT
BRANCH   1  10
HETATM   10  C   UNL     1      -1.286   2.348  -0.027  1.00  0.00     0.240 C 
BRANCH  10  11
HETATM   11  C   UNL     1      -2.818   2.138  -0.038  1.00  0.00     0.238 C 
HETATM   12  N   UNL     1      -3.526   2.094   1.160  1.00  0.00    -0.348 N 
HETATM   13  C   UNL     1      -2.943   1.825   2.479  1.00  0.00     0.141 C 
HETATM   14  C   UNL     1      -4.989   1.937   1.109  1.00  0.00     0.141 C 
HETATM   15  C   UNL     1      -3.647   2.605   3.599  1.00  0.00     0.127 C 
HETATM   16  N   UNL     1      -5.129   2.377   3.599  1.00  0.00    -0.208 NA
HETATM   17  C   UNL     1      -5.695   2.691   2.250  1.00  0.00     0.127 C 
HETATM   18  O   UNL     1      -3.411   2.046  -1.119  1.00  0.00    -0.272 OA
BRANCH  16  19
HETATM   19  S   UNL     1      -5.612   0.948   4.370  1.00  0.00     0.207 S 
HETATM   20  O   UNL     1      -5.399  -0.147   3.452  1.00  0.00    -0.212 OA
HETATM   21  O   UNL     1      -5.007   0.939   5.685  1.00  0.00    -0.212 OA
HETATM   22  C   UNL     1      -7.370   1.174   4.581  1.00  0.00     0.180 C 
ENDBRANCH  16  19
ENDBRANCH  10  11
ENDBRANCH   1  10
BRANCH   2  23
HETATM   23  C   UNL     1       1.147  -1.326   2.057  1.00  0.00     0.232 C 
HETATM   24  O   UNL     1       1.778  -2.593   1.788  1.00  0.00    -0.366 OA
HETATM   25  C   UNL     1       1.449  -3.500   2.852  1.00  0.00     0.170 C 
HETATM   26  C   UNL     1       0.613  -2.741   3.859  1.00  0.00     0.031 C 
HETATM   27  C   UNL     1       0.003  -1.656   3.012  1.00  0.00     0.056 C 
ENDBRANCH   2  23
TORSDOF 4
