REMARK  2 active torsions:
REMARK  status: ('A' for Active; 'I' for Inactive)
REMARK    1  A    between atoms: C_8  and  N_9 
REMARK       I    between atoms: N_9  and  C_10 
REMARK       I    between atoms: C_10  and  N_12 
REMARK    2  A    between atoms: N_12  and  C_13 
ROOT
HETATM    1  N   UNL     1       3.010  -3.815  -0.826  1.00  0.00    -0.140 N 
HETATM    2  C   UNL     1       1.744  -4.332  -0.912  1.00  0.00     0.335 C 
HETATM    3  O   UNL     1       1.387  -4.919  -1.928  1.00  0.00    -0.246 OA
HETATM    4  N   UNL     1       0.918  -4.053   0.130  1.00  0.00    -0.335 N 
HETATM    5  H   UNL     1       3.552  -3.892  -1.674  1.00  0.00     0.189 HD
HETATM    6  H   UNL     1       1.390  -3.784   0.991  1.00  0.00     0.164 HD
ENDROOT
BRANCH   1   7
HETATM    7  C   UNL     1       3.514  -3.178   0.283  1.00  0.00     0.703 A 
HETATM    8  N   UNL     1       4.645  -2.397   0.289  1.00  0.00    -0.127 N 
HETATM    9  C   UNL     1       5.415  -1.929  -0.831  1.00  0.00     0.197 C 
HETATM   10  N   UNL     1       4.907  -1.934   1.527  1.00  0.00    -0.280 N 
HETATM   11  C   UNL     1       3.889  -2.437   2.223  1.00  0.00     0.215 A 
ATOM     12  HN  UNL     1       5.681  -1.352   1.847  1.00  0.00     0.188 HD
HETATM   13  N   UNL     1       3.007  -3.184   1.501  1.00  0.00    -0.185 N 
ATOM     14  HN  UNL     1       2.155  -3.641   1.826  1.00  0.00     0.185 HD
ENDBRANCH   1   7
BRANCH   4  15
HETATM   15  C   UNL     1      -0.496  -4.362   0.193  1.00  0.00     0.122 C 
HETATM   16  C   UNL     1      -1.235  -3.291   0.981  1.00  0.00     0.065 C 
HETATM   17  C   UNL     1      -2.399  -4.025   1.646  1.00  0.00     0.057 C 
HETATM   18  C   UNL     1      -2.444  -3.767   3.157  1.00  0.00     0.045 C 
HETATM   19  C   UNL     1      -3.741  -3.624   1.034  1.00  0.00     0.045 C 
HETATM   20  O   UNL     1      -2.197  -5.436   1.431  1.00  0.00    -0.369 OA
HETATM   21  C   UNL     1      -0.859  -5.660   0.927  1.00  0.00     0.075 C 
HETATM   22  C   UNL     1      -0.889  -6.862  -0.016  1.00  0.00     0.048 C 
HETATM   23  C   UNL     1       0.051  -5.984   2.121  1.00  0.00     0.048 C 
ENDBRANCH   4  15
TORSDOF 2
