REMARK  4 active torsions:
REMARK  status: ('A' for Active; 'I' for Inactive)
REMARK       I    between atoms: C_2  and  N_3 
REMARK       I    between atoms: C_2  and  N_16 
REMARK    1  A    between atoms: N_3  and  C_4 
REMARK    2  A    between atoms: C_4  and  C_5 
REMARK    3  A    between atoms: C_5  and  N_10 
REMARK    4  A    between atoms: N_16  and  C_17 
ROOT
HETATM    1  O   UNL     1       2.424  -0.627   2.808  1.00  0.00    -0.247 OA
HETATM    2  C   UNL     1       1.651  -1.554   3.023  1.00  0.00     0.320 C 
HETATM    3  N   UNL     1       1.379  -2.501   2.057  1.00  0.00    -0.340 N 
HETATM    4  N   UNL     1       0.993  -1.811   4.204  1.00  0.00    -0.308 N 
HETATM    5  H   UNL     1       0.674  -3.201   2.228  1.00  0.00     0.164 HD
HETATM    6  H   UNL     1       0.328  -2.571   4.198  1.00  0.00     0.170 HD
ENDROOT
BRANCH   3   7
HETATM    7  C   UNL     1       2.035  -2.472   0.750  1.00  0.00     0.167 C 
BRANCH   7   8
HETATM    8  C   UNL     1       3.200  -3.505   0.544  1.00  0.00     0.184 C 
HETATM    9  C   UNL     1       2.576  -4.938   0.619  1.00  0.00     0.054 C 
HETATM   10  C   UNL     1       3.622  -5.984   0.987  1.00  0.00     0.076 C 
HETATM   11  S   UNL     1       4.958  -5.125   1.841  1.00  0.00    -0.166 SA
HETATM   12  C   UNL     1       4.147  -3.503   1.786  1.00  0.00     0.117 C 
BRANCH   8  13
HETATM   13  N   UNL     1       3.960  -3.336  -0.745  1.00  0.00     0.104 N 
HETATM   14  C   UNL     1       4.874  -2.172  -0.865  1.00  0.00     0.299 C 
HETATM   15  C   UNL     1       4.240  -0.872  -1.396  1.00  0.00     0.198 C 
HETATM   16  O   UNL     1       3.543  -1.083  -2.629  1.00  0.00    -0.388 OA
HETATM   17  C   UNL     1       2.578  -2.130  -2.509  1.00  0.00     0.198 C 
HETATM   18  C   UNL     1       3.222  -3.440  -2.021  1.00  0.00     0.299 C 
ENDBRANCH   8  13
ENDBRANCH   7   8
ENDBRANCH   3   7
BRANCH   4  19
HETATM   19  C   UNL     1       1.143  -1.118   5.424  1.00  0.00     0.051 A 
HETATM   20  C   UNL     1       2.056  -0.088   5.641  1.00  0.00     0.032 A 
HETATM   21  C   UNL     1       2.132   0.531   6.891  1.00  0.00     0.019 A 
HETATM   22  C   UNL     1       1.283   0.099   7.894  1.00  0.00     0.088 A 
HETATM   23  N   UNL     1       0.382  -0.892   7.731  1.00  0.00    -0.373 N 
HETATM   24  C   UNL     1       0.332  -1.468   6.508  1.00  0.00     0.117 A 
ATOM     25  HN  UNL     1      -0.230  -1.191   8.490  1.00  0.00     0.164 HD
ENDBRANCH   4  19
TORSDOF 4
