REMARK  4 active torsions:
REMARK  status: ('A' for Active; 'I' for Inactive)
REMARK    1  A    between atoms: N_6  and  C_7 
REMARK    2  A    between atoms: C_7  and  C_8 
REMARK       I    between atoms: C_8  and  N_10 
REMARK    3  A    between atoms: N_10  and  C_11 
REMARK    4  A    between atoms: C_11  and  C_12 
REMARK       I    between atoms: C_12  and  N_14 
ROOT
HETATM    1  C   UNL     1       5.138  -3.225   0.069  1.00  0.00     0.237 C 
HETATM    2  O   UNL     1       3.942  -3.516   0.110  1.00  0.00    -0.272 OA
HETATM    3  N   UNL     1       6.124  -4.189   0.031  1.00  0.00    -0.351 N 
HETATM    4  H   UNL     1       7.093  -3.941   0.226  1.00  0.00     0.163 HD
ENDROOT
BRANCH   1   5
HETATM    5  C   UNL     1       5.610  -1.794   0.013  1.00  0.00     0.251 C 
BRANCH   5   6
HETATM    6  N   UNL     1       5.703  -1.208   1.335  1.00  0.00    -0.288 N 
HETATM    7  C   UNL     1       4.750  -0.493   2.019  1.00  0.00     0.027 A 
HETATM    8  C   UNL     1       5.370  -0.061   3.172  1.00  0.00     0.052 A 
HETATM    9  C   UNL     1       3.363  -0.275   1.541  1.00  0.00     0.070 C 
HETATM   10  C   UNL     1       6.691  -0.549   3.094  1.00  0.00     0.024 A 
HETATM   11  C   UNL     1       7.794  -0.354   4.064  1.00  0.00     0.070 C 
HETATM   12  N   UNL     1       6.892  -1.252   1.974  1.00  0.00    -0.303 N 
ATOM     13  HN  UNL     1       7.749  -1.716   1.671  1.00  0.00     0.186 HD
ENDBRANCH   5   6
ENDBRANCH   1   5
BRANCH   3  14
HETATM   14  C   UNL     1       5.760  -5.590   0.131  1.00  0.00     0.225 C 
BRANCH  14  15
HETATM   15  C   UNL     1       6.959  -6.548   0.172  1.00  0.00     0.237 C 
HETATM   16  O   UNL     1       8.111  -6.120   0.067  1.00  0.00    -0.272 OA
HETATM   17  N   UNL     1       6.663  -7.911   0.308  1.00  0.00    -0.351 N 
HETATM   18  C   UNL     1       7.785  -8.837   0.484  1.00  0.00     0.126 C 
HETATM   19  C   UNL     1       5.364  -8.388   0.787  1.00  0.00     0.126 C 
HETATM   20  C   UNL     1       7.466 -10.250  -0.005  1.00  0.00     0.020 C 
HETATM   21  C   UNL     1       6.149 -10.765   0.567  1.00  0.00     0.003 C 
HETATM   22  C   UNL     1       5.027  -9.781   0.270  1.00  0.00     0.020 C 
ENDBRANCH  14  15
ENDBRANCH   3  14
TORSDOF 4
