REMARK  4 active torsions:
REMARK  status: ('A' for Active; 'I' for Inactive)
REMARK    1  A    between atoms: C_2  and  C_3 
REMARK       I    between atoms: C_2  and  N_12 
REMARK    2  A    between atoms: C_3  and  N_4 
REMARK    3  A    between atoms: N_12  and  C_13 
REMARK    4  A    between atoms: C_13  and  C_14 
ROOT
HETATM    1  N   UNL     1       3.251   0.328  -2.245  1.00  0.00    -0.301 N 
HETATM    2  C   UNL     1       2.301   0.437  -3.241  1.00  0.00     0.102 A 
HETATM    3  C   UNL     1       2.458  -0.150  -4.429  1.00  0.00     0.092 A 
HETATM    4  C   UNL     1       3.676  -0.936  -4.677  1.00  0.00     0.250 A 
HETATM    5  O   UNL     1       3.851  -1.515  -5.743  1.00  0.00    -0.268 OA
HETATM    6  N   UNL     1       4.576  -0.979  -3.651  1.00  0.00    -0.275 N 
HETATM    7  C   UNL     1       4.409  -0.417  -2.411  1.00  0.00     0.329 A 
HETATM    8  O   UNL     1       5.241  -0.586  -1.521  1.00  0.00    -0.246 OA
HETATM    9  H   UNL     1       5.409  -1.526  -3.797  1.00  0.00     0.173 HD
ENDROOT
BRANCH   1  10
HETATM   10  C   UNL     1       3.026   0.970  -0.953  1.00  0.00     0.235 C 
BRANCH  10  11
HETATM   11  C   UNL     1       2.303   0.021   0.001  1.00  0.00     0.235 C 
HETATM   12  O   UNL     1       1.078  -0.081   0.004  1.00  0.00    -0.272 OA
HETATM   13  N   UNL     1       3.140  -0.732   0.796  1.00  0.00    -0.359 N 
HETATM   14  H   UNL     1       4.132  -0.742   0.577  1.00  0.00     0.162 HD
BRANCH  13  15
HETATM   15  C   UNL     1       2.639  -1.702   1.743  1.00  0.00     0.127 C 
BRANCH  15  16
HETATM   16  C   UNL     1       3.141  -3.064   1.381  1.00  0.00     0.003 A 
HETATM   17  C   UNL     1       2.707  -3.728   0.099  1.00  0.00     0.007 A 
HETATM   18  C   UNL     1       2.215  -4.255   1.417  1.00  0.00     0.007 A 
ENDBRANCH  15  16
ENDBRANCH  13  15
ENDBRANCH  10  11
ENDBRANCH   1  10
TORSDOF 4
