REMARK  7 active torsions:
REMARK  status: ('A' for Active; 'I' for Inactive)
REMARK    1  A    between atoms: O_2  and  C_3 
REMARK    2  A    between atoms: C_3  and  C_4 
REMARK    3  A    between atoms: C_4  and  O_5 
REMARK    4  A    between atoms: O_5  and  C_6 
REMARK    5  A    between atoms: C_9  and  N_10 
REMARK       I    between atoms: N_10  and  C_11 
REMARK    6  A    between atoms: C_11  and  C_13 
REMARK    7  A    between atoms: N_15  and  C_16 
ROOT
HETATM    1  N   UNL     1      10.234   1.195  -4.118  1.00  0.00    -0.326 N 
HETATM    2  C   UNL     1      11.073   0.110  -4.278  1.00  0.00     0.228 C 
HETATM    3  O   UNL     1      10.744  -1.062  -4.088  1.00  0.00    -0.273 OA
HETATM    4  H   UNL     1      10.527   2.095  -4.482  1.00  0.00     0.169 HD
ENDROOT
BRANCH   1   5
HETATM    5  C   UNL     1       8.932   1.135  -3.545  1.00  0.00     0.050 A 
HETATM    6  C   UNL     1       8.441   0.017  -2.873  1.00  0.00     0.035 A 
HETATM    7  C   UNL     1       7.162   0.026  -2.326  1.00  0.00     0.058 A 
HETATM    8  C   UNL     1       6.389   1.161  -2.473  1.00  0.00     0.141 A 
HETATM    9  N   UNL     1       6.812   2.277  -3.097  1.00  0.00    -0.345 N 
HETATM   10  C   UNL     1       8.074   2.236  -3.613  1.00  0.00     0.119 A 
ATOM     11  HN  UNL     1       6.222   3.105  -3.179  1.00  0.00     0.167 HD
BRANCH   8  12
HETATM   12  O   UNL     1       5.179   1.136  -1.817  1.00  0.00    -0.334 OA
BRANCH  12  13
HETATM   13  C   UNL     1       4.168   1.937  -2.425  1.00  0.00     0.203 C 
BRANCH  13  14
HETATM   14  C   UNL     1       2.937   1.852  -1.522  1.00  0.00     0.193 C 
BRANCH  14  15
HETATM   15  O   UNL     1       1.845   2.573  -2.090  1.00  0.00    -0.394 OA
HETATM   16  C   UNL     1       0.701   2.520  -1.246  1.00  0.00     0.201 C 
ENDBRANCH  14  15
ENDBRANCH  13  14
ENDBRANCH  12  13
ENDBRANCH   8  12
ENDBRANCH   1   5
BRANCH   2  17
HETATM   17  C   UNL     1      12.454   0.389  -4.840  1.00  0.00     0.105 C 
HETATM   18  C   UNL     1      13.379  -0.724  -4.346  1.00  0.00     0.140 C 
HETATM   19  N   UNL     1      14.692  -0.135  -4.308  1.00  0.00    -0.347 N 
HETATM   20  C   UNL     1      14.617   1.252  -4.291  1.00  0.00     0.221 C 
HETATM   21  O   UNL     1      15.547   2.030  -4.149  1.00  0.00    -0.273 OA
HETATM   22  C   UNL     1      13.166   1.660  -4.397  1.00  0.00     0.118 C 
BRANCH  19  23
HETATM   23  C   UNL     1      15.866  -0.861  -3.808  1.00  0.00     0.079 C 
HETATM   24  C   UNL     1      15.972  -0.756  -2.283  1.00  0.00     0.032 C 
HETATM   25  C   UNL     1      15.879  -2.331  -4.230  1.00  0.00     0.032 C 
ENDBRANCH  19  23
ENDBRANCH   2  17
TORSDOF 7
