REMARK  6 active torsions:
REMARK  status: ('A' for Active; 'I' for Inactive)
REMARK    1  A    between atoms: N_2  and  C_11 
REMARK    2  A    between atoms: C_7  and  N_10 
REMARK    3  A    between atoms: C_9  and  C_11 
REMARK    4  A    between atoms: C_9  and  O_26 
REMARK    5  A    between atoms: N_10  and  C_20 
REMARK    6  A    between atoms: C_20  and  C_21 
ROOT
HETATM    1  C   UNL     1       0.149  -0.432   0.585  1.00  0.00     0.122 C 
HETATM    2  N   UNL     1       1.158   1.507   0.538  1.00  0.00    -0.324 N 
HETATM    3  C   UNL     1      -0.037   0.905   0.251  1.00  0.00     0.140 C 
HETATM    4  N   UNL     1       1.361  -0.580   1.243  1.00  0.00    -0.346 N 
ATOM      5  HN  UNL     1       1.755  -1.440   1.624  1.00  0.00     0.167 HD
HETATM    6  C   UNL     1      -0.849  -1.357   0.155  1.00  0.00     0.135 C 
HETATM    7  C   UNL     1       1.896   0.623   1.273  1.00  0.00     0.185 C 
HETATM    8  N   UNL     1      -1.117   1.452  -0.320  1.00  0.00    -0.336 N 
ATOM      9  HN  UNL     1      -1.192   2.431  -0.598  1.00  0.00     0.168 HD
HETATM   10  N   UNL     1      -2.014  -0.803  -0.282  1.00  0.00    -0.337 N 
ATOM     11  HN  UNL     1      -2.827  -1.392  -0.462  1.00  0.00     0.168 HD
HETATM   12  C   UNL     1      -2.086   0.539  -0.477  1.00  0.00     0.183 C 
ENDROOT
BRANCH   6  13
HETATM   13  N   UNL     1      -0.671  -2.732   0.036  1.00  0.00    -0.369 N 
HETATM   14  C   UNL     1       0.682  -3.243  -0.142  1.00  0.00     0.151 C 
BRANCH  13  15
HETATM   15  C   UNL     1      -1.747  -3.695   0.301  1.00  0.00     0.129 C 
BRANCH  15  16
HETATM   16  C   UNL     1      -2.387  -4.292  -0.981  1.00  0.00     0.018 C 
HETATM   17  C   UNL     1      -3.412  -3.347  -1.622  1.00  0.00     0.146 C 
HETATM   18  S   UNL     1      -4.994  -3.843  -0.994  1.00  0.00     0.144 S 
HETATM   19  O   UNL     1      -5.100  -3.508   0.411  1.00  0.00    -0.228 OA
HETATM   20  O   UNL     1      -6.027  -3.512  -1.950  1.00  0.00    -0.228 OA
HETATM   21  C   UNL     1      -4.587  -5.556  -1.139  1.00  0.00     0.141 C 
HETATM   22  C   UNL     1      -3.129  -5.641  -0.680  1.00  0.00     0.022 C 
ENDBRANCH  15  16
ENDBRANCH  13  15
ENDBRANCH   6  13
BRANCH   2  23
HETATM   23  C   UNL     1       1.633   2.793   0.050  1.00  0.00     0.172 C 
BRANCH  23  24
HETATM   24  C   UNL     1       2.334   2.720  -1.329  1.00  0.00     0.102 C 
HETATM   25  C   UNL     1       3.547   1.757  -1.424  1.00  0.00     0.153 C 
HETATM   26  O   UNL     1       4.471   2.323  -2.385  1.00  0.00    -0.383 OA
HETATM   27  C   UNL     1       3.262   0.333  -1.874  1.00  0.00     0.042 C 
HETATM   28  C   UNL     1       3.973   3.606  -2.786  1.00  0.00     0.171 C 
HETATM   29  C   UNL     1       3.021   4.036  -1.685  1.00  0.00     0.068 C 
BRANCH  24  30
HETATM   30  O   UNL     1       1.376   2.490  -2.375  1.00  0.00    -0.385 OA
HETATM   31  H   UNL     1       0.686   1.874  -2.064  1.00  0.00     0.210 HD
ENDBRANCH  24  30
ENDBRANCH  23  24
ENDBRANCH   2  23
TORSDOF 6
