REMARK  3 active torsions:
REMARK  status: ('A' for Active; 'I' for Inactive)
REMARK    1  A    between atoms: C_5  and  N_8 
REMARK    2  A    between atoms: C_11  and  N_14 
REMARK       I    between atoms: N_14  and  C_15 
REMARK       I    between atoms: C_15  and  N_17 
REMARK    3  A    between atoms: N_17  and  C_18 
ROOT
HETATM    1  N   UNL     1       6.779  -0.794  -5.876  1.00  0.00    -0.338 N 
HETATM    2  C   UNL     1       7.357  -0.050  -6.876  1.00  0.00     0.321 C 
HETATM    3  O   UNL     1       6.714   0.668  -7.630  1.00  0.00    -0.247 OA
HETATM    4  N   UNL     1       8.716  -0.280  -6.952  1.00  0.00    -0.306 N 
HETATM    5  H   UNL     1       7.346  -0.887  -5.044  1.00  0.00     0.164 HD
HETATM    6  H   UNL     1       8.966  -1.233  -6.713  1.00  0.00     0.171 HD
ENDROOT
BRANCH   1   7
HETATM    7  C   UNL     1       5.327  -0.766  -5.710  1.00  0.00     0.089 C 
HETATM    8  C   UNL     1       4.858   0.523  -5.026  1.00  0.00     0.055 C 
HETATM    9  C   UNL     1       5.147   0.491  -3.526  1.00  0.00     0.275 C 
HETATM   10  N   UNL     1       4.573  -0.684  -2.844  1.00  0.00     0.093 N 
HETATM   11  C   UNL     1       5.130  -1.902  -3.459  1.00  0.00     0.275 C 
HETATM   12  C   UNL     1       4.849  -2.009  -4.958  1.00  0.00     0.055 C 
BRANCH  10  13
HETATM   13  C   UNL     1       3.084  -0.664  -2.759  1.00  0.00     0.226 C 
HETATM   14  C   UNL     1       2.539   0.572  -2.006  1.00  0.00     0.066 C 
HETATM   15  C   UNL     1       2.867   0.521  -0.511  1.00  0.00     0.274 C 
HETATM   16  N   UNL     1       2.379  -0.693   0.161  1.00  0.00     0.084 N 
HETATM   17  C   UNL     1       0.930  -0.679   0.347  1.00  0.00     0.309 C 
HETATM   18  C   UNL     1       2.837  -1.898  -0.546  1.00  0.00     0.274 C 
HETATM   19  C   UNL     1       2.494  -1.897  -2.038  1.00  0.00     0.066 C 
ENDBRANCH  10  13
ENDBRANCH   1   7
BRANCH   4  20
HETATM   20  C   UNL     1       9.461   0.295  -8.007  1.00  0.00     0.077 A 
HETATM   21  C   UNL     1       9.336   1.642  -8.341  1.00  0.00     0.050 A 
HETATM   22  C   UNL     1      10.014   2.104  -9.456  1.00  0.00     0.090 A 
HETATM   23  N   UNL     1      10.791   1.323 -10.241  1.00  0.00    -0.372 N 
HETATM   24  C   UNL     1      10.908   0.024  -9.878  1.00  0.00     0.132 A 
ATOM     25  HN  UNL     1      11.265   1.694 -11.065  1.00  0.00     0.164 HD
HETATM   26  C   UNL     1      10.293  -0.519  -8.766  1.00  0.00     0.158 A 
HETATM   27  F   UNL     1      10.428  -1.821  -8.474  1.00  0.00    -0.202 F 
ENDBRANCH   4  20
TORSDOF 3
