REMARK  3 active torsions:
REMARK  status: ('A' for Active; 'I' for Inactive)
REMARK    1  A    between atoms: S_2  and  N_5 
REMARK    2  A    between atoms: N_5  and  C_6 
REMARK       I    between atoms: N_5  and  C_12 
REMARK       I    between atoms: C_12  and  N_14 
REMARK       I    between atoms: N_14  and  C_15 
REMARK       I    between atoms: C_15  and  N_17 
REMARK    3  A    between atoms: N_17  and  C_18 
ROOT
HETATM    1  N   UNL     1       3.529  -0.099   1.520  1.00  0.00    -0.222 N 
HETATM    2  C   UNL     1       4.910  -0.276   1.929  1.00  0.00     0.340 C 
HETATM    3  O   UNL     1       5.181  -0.501   3.105  1.00  0.00    -0.246 OA
HETATM    4  N   UNL     1       5.906  -0.122   0.992  1.00  0.00    -0.260 N 
HETATM    5  C   UNL     1       7.260  -0.212   1.168  1.00  0.00     0.328 C 
HETATM    6  O   UNL     1       7.962  -0.543   0.216  1.00  0.00    -0.247 OA
HETATM    7  N   UNL     1       7.729   0.133   2.410  1.00  0.00    -0.307 N 
HETATM    8  H   UNL     1       5.650  -0.282   0.024  1.00  0.00     0.175 HD
HETATM    9  H   UNL     1       7.114   0.709   2.971  1.00  0.00     0.170 HD
ENDROOT
BRANCH   1  10
HETATM   10  S   UNL     1       3.207   0.080  -0.135  1.00  0.00     0.233 S 
HETATM   11  C   UNL     1       1.684  -0.730  -0.589  1.00  0.00     0.186 C 
HETATM   12  O   UNL     1       4.242  -0.670  -0.834  1.00  0.00    -0.206 OA
HETATM   13  O   UNL     1       3.075   1.493  -0.397  1.00  0.00    -0.206 OA
ENDBRANCH   1  10
BRANCH   1  14
HETATM   14  C   UNL     1       2.506   0.109   2.647  1.00  0.00     0.106 C 
HETATM   15  C   UNL     1       1.047   0.408   2.303  1.00  0.00     0.026 C 
HETATM   16  C   UNL     1       0.771   1.841   1.845  1.00  0.00     0.002 C 
HETATM   17  C   UNL     1       1.366   2.899   2.771  1.00  0.00     0.000 C 
HETATM   18  C   UNL     1       2.803   2.595   3.174  1.00  0.00     0.002 C 
HETATM   19  C   UNL     1       2.934   1.171   3.694  1.00  0.00     0.026 C 
ENDBRANCH   1  14
BRANCH   7  20
HETATM   20  C   UNL     1       9.094   0.115   2.734  1.00  0.00     0.051 A 
HETATM   21  C   UNL     1       9.618   1.148   3.506  1.00  0.00     0.032 A 
HETATM   22  C   UNL     1      10.988   1.181   3.752  1.00  0.00     0.019 A 
HETATM   23  C   UNL     1      11.772   0.143   3.270  1.00  0.00     0.088 A 
HETATM   24  N   UNL     1      11.288  -0.904   2.572  1.00  0.00    -0.373 N 
HETATM   25  C   UNL     1       9.961  -0.886   2.303  1.00  0.00     0.117 A 
ATOM     26  HN  UNL     1      11.889  -1.668   2.263  1.00  0.00     0.164 HD
ENDBRANCH   7  20
TORSDOF 3
