REMARK  5 active torsions:
REMARK  status: ('A' for Active; 'I' for Inactive)
REMARK    1  A    between atoms: C_2  and  C_3 
REMARK    2  A    between atoms: C_3  and  O_4 
REMARK    3  A    between atoms: O_4  and  C_5 
REMARK    4  A    between atoms: N_9  and  C_11 
REMARK    5  A    between atoms: C_15  and  C_19 
REMARK       I    between atoms: C_19  and  N_21 
ROOT
HETATM    1  C   UNL     1       2.913  -4.405  -1.012  1.00  0.00     0.125 A 
HETATM    2  N   UNL     1       2.887  -4.086  -2.336  1.00  0.00    -0.350 N 
ATOM      3  HN  UNL     1       3.713  -3.688  -2.782  1.00  0.00     0.166 HD
HETATM    4  C   UNL     1       1.756  -4.300  -3.063  1.00  0.00     0.106 A 
HETATM    5  C   UNL     1       0.591  -4.832  -2.546  1.00  0.00     0.049 A 
HETATM    6  C   UNL     1       0.613  -5.189  -1.202  1.00  0.00     0.046 A 
HETATM    7  C   UNL     1       1.771  -5.003  -0.436  1.00  0.00     0.079 A 
HETATM    8 CL   UNL     1       1.709  -5.676   1.161  1.00  0.00    -0.080 Cl
ENDROOT
BRANCH   1   9
HETATM    9  N   UNL     1       4.084  -4.115  -0.339  1.00  0.00    -0.363 N 
HETATM   10  C   UNL     1       5.355  -4.113  -1.070  1.00  0.00     0.124 C 
HETATM   11  C   UNL     1       6.134  -2.814  -0.860  1.00  0.00     0.022 C 
HETATM   12  C   UNL     1       6.262  -2.463   0.622  1.00  0.00     0.035 C 
HETATM   13  C   UNL     1       4.875  -2.365   1.260  1.00  0.00     0.139 C 
HETATM   14  C   UNL     1       4.128  -3.704   1.068  1.00  0.00     0.156 C 
BRANCH  13  15
HETATM   15  O   UNL     1       4.226  -1.236   0.655  1.00  0.00    -0.384 OA
BRANCH  15  16
HETATM   16  C   UNL     1       2.916  -0.958   1.136  1.00  0.00     0.168 C 
BRANCH  16  17
HETATM   17  C   UNL     1       2.445   0.327   0.469  1.00  0.00     0.022 C 
HETATM   18  C   UNL     1       1.029   0.693   0.875  1.00  0.00     0.007 C 
ENDBRANCH  16  17
ENDBRANCH  15  16
ENDBRANCH  13  15
ENDBRANCH   1   9
BRANCH   5  19
HETATM   19  C   UNL     1      -0.644  -5.067  -3.328  1.00  0.00     0.250 C 
HETATM   20  O   UNL     1      -1.640  -5.552  -2.801  1.00  0.00    -0.268 OA
HETATM   21  N   UNL     1      -0.672  -4.740  -4.654  1.00  0.00    -0.366 N 
HETATM   22  H   UNL     1       0.081  -4.329  -5.184  1.00  0.00     0.159 HD
HETATM   23  H   UNL     1      -1.541  -4.919  -5.142  1.00  0.00     0.159 HD
ENDBRANCH   5  19
TORSDOF 5
