REMARK  5 active torsions:
REMARK  status: ('A' for Active; 'I' for Inactive)
REMARK    1  A    between atoms: C_2  and  C_5 
REMARK       I    between atoms: C_5  and  N_7 
REMARK    2  A    between atoms: C_10  and  C_11 
REMARK    3  A    between atoms: C_11  and  N_12 
REMARK       I    between atoms: N_12  and  C_13 
REMARK    4  A    between atoms: C_13  and  C_15 
REMARK    5  A    between atoms: C_15  and  N_16 
ROOT
HETATM    1  C   UNL     1       7.849  -1.452   1.830  1.00  0.00     0.127 C 
ENDROOT
BRANCH   1   2
HETATM    2  C   UNL     1       7.009  -1.362   0.538  1.00  0.00     0.006 C 
HETATM    3  C   UNL     1       6.326  -0.006   0.325  1.00  0.00     0.026 C 
HETATM    4  C   UNL     1       5.025   0.173   1.100  1.00  0.00     0.126 C 
HETATM    5  N   UNL     1       4.113  -0.951   0.923  1.00  0.00    -0.344 N 
HETATM    6  C   UNL     1       2.713  -0.849   0.925  1.00  0.00     0.327 C 
HETATM    7  C   UNL     1       4.701  -2.272   1.180  1.00  0.00     0.126 C 
HETATM    8  O   UNL     1       2.032  -1.881   1.046  1.00  0.00    -0.263 OA
HETATM    9  C   UNL     1       5.980  -2.490   0.376  1.00  0.00     0.026 C 
BRANCH   6  10
HETATM   10  C   UNL     1       1.979   0.515   0.758  1.00  0.00     0.472 C 
HETATM   11  F   UNL     1       2.754   1.620   0.604  1.00  0.00    -0.162 F 
HETATM   12  F   UNL     1       1.185   0.783   1.836  1.00  0.00    -0.162 F 
HETATM   13  F   UNL     1       1.153   0.504  -0.328  1.00  0.00    -0.162 F 
ENDBRANCH   6  10
ENDBRANCH   1   2
BRANCH   1  14
HETATM   14  N   UNL     1       7.095  -1.297   3.051  1.00  0.00    -0.359 N 
HETATM   15  C   UNL     1       6.943  -0.079   3.684  1.00  0.00     0.235 C 
HETATM   16  O   UNL     1       7.510   0.950   3.328  1.00  0.00    -0.272 OA
HETATM   17  H   UNL     1       6.809  -2.129   3.566  1.00  0.00     0.162 HD
BRANCH  15  18
HETATM   18  C   UNL     1       5.958  -0.110   4.849  1.00  0.00     0.234 C 
BRANCH  18  19
HETATM   19  N   UNL     1       6.703  -0.257   6.080  1.00  0.00    -0.316 N 
HETATM   20  C   UNL     1       7.137   0.867   6.752  1.00  0.00     0.095 A 
HETATM   21  C   UNL     1       7.887   0.763   7.855  1.00  0.00     0.017 A 
HETATM   22  C   UNL     1       8.241  -0.539   8.358  1.00  0.00     0.007 A 
HETATM   23  C   UNL     1       7.857  -1.650   7.713  1.00  0.00     0.074 A 
HETATM   24  C   UNL     1       7.056  -1.546   6.467  1.00  0.00     0.247 A 
HETATM   25  O   UNL     1       6.760  -2.557   5.835  1.00  0.00    -0.268 OA
ENDBRANCH  18  19
ENDBRANCH  15  18
ENDBRANCH   1  14
TORSDOF 5
