REMARK  4 active torsions:
REMARK  status: ('A' for Active; 'I' for Inactive)
REMARK    1  A    between atoms: C_4  and  N_5 
REMARK       I    between atoms: N_5  and  C_6 
REMARK       I    between atoms: C_6  and  N_8 
REMARK    2  A    between atoms: N_8  and  C_9 
REMARK    3  A    between atoms: C_9  and  C_10 
REMARK    4  A    between atoms: C_10  and  N_11 
ROOT
HETATM    1  N   UNL     1       6.112   1.655  -0.485  1.00  0.00    -0.293 N 
HETATM    2  C   UNL     1       5.977   3.007  -0.562  1.00  0.00     0.321 C 
HETATM    3  O   UNL     1       4.964   3.481  -1.073  1.00  0.00    -0.247 OA
HETATM    4  N   UNL     1       7.007   3.762  -0.084  1.00  0.00    -0.341 N 
HETATM    5  H   UNL     1       5.349   1.142  -0.901  1.00  0.00     0.172 HD
HETATM    6  H   UNL     1       7.654   3.278   0.531  1.00  0.00     0.164 HD
ENDROOT
BRANCH   1   7
HETATM    7  C   UNL     1       7.135   0.941   0.098  1.00  0.00     0.132 A 
HETATM    8  C   UNL     1       7.220  -0.469   0.113  1.00  0.00     0.084 A 
HETATM    9  C   UNL     1       8.383  -0.736   0.791  1.00  0.00     0.076 A 
HETATM   10  C   UNL     1       9.110  -1.955   1.171  1.00  0.00     0.079 C 
HETATM   11  O   UNL     1       8.958   0.434   1.170  1.00  0.00    -0.241 OA
HETATM   12  N   UNL     1       8.177   1.482   0.742  1.00  0.00    -0.245 N 
ATOM     13  HN  UNL     1       8.356   2.476   0.887  1.00  0.00     0.196 HD
ENDBRANCH   1   7
BRANCH   4  14
HETATM   14  C   UNL     1       6.884   5.191   0.050  1.00  0.00     0.154 C 
BRANCH  14  15
HETATM   15  C   UNL     1       8.237   5.920   0.064  1.00  0.00     0.292 C 
BRANCH  15  16
HETATM   16  N   UNL     1       8.031   7.367   0.151  1.00  0.00     0.090 N 
HETATM   17  C   UNL     1       7.339   7.922  -1.017  1.00  0.00     0.272 C 
HETATM   18  C   UNL     1       7.645   9.411  -0.962  1.00  0.00     0.032 C 
HETATM   19  C   UNL     1       8.710   9.552   0.117  1.00  0.00     0.032 C 
HETATM   20  C   UNL     1       9.260   8.145   0.278  1.00  0.00     0.272 C 
ENDBRANCH  15  16
ENDBRANCH  14  15
ENDBRANCH   4  14
TORSDOF 4
