REMARK  5 active torsions:
REMARK  status: ('A' for Active; 'I' for Inactive)
REMARK    1  A    between atoms: N_1  and  C_12 
REMARK    2  A    between atoms: N_2  and  C_16 
REMARK       I    between atoms: N_4  and  C_10 
REMARK    3  A    between atoms: C_10  and  C_12 
REMARK    4  A    between atoms: C_11  and  C_15 
REMARK    5  A    between atoms: C_13  and  C_18 
ROOT
HETATM    1  N   UNL     1      -3.665   0.775  -0.095  1.00  0.00    -0.248 N 
HETATM    2  N   UNL     1      -3.085  -0.441  -0.429  1.00  0.00    -0.298 N 
ATOM      3  HN  UNL     1      -2.166  -0.601  -0.842  1.00  0.00     0.187 HD
HETATM    4  C   UNL     1      -3.039   2.003  -0.041  1.00  0.00     0.257 C 
HETATM    5  C   UNL     1      -5.092   0.635   0.213  1.00  0.00     0.174 C 
HETATM    6  C   UNL     1      -3.977  -1.335  -0.097  1.00  0.00     0.038 C 
HETATM    7  C   UNL     1      -5.141  -0.795   0.700  1.00  0.00     0.093 C 
HETATM    8  O   UNL     1      -3.700   3.027   0.171  1.00  0.00    -0.270 OA
ENDROOT
BRANCH   4   9
HETATM    9  C   UNL     1      -1.514   2.082  -0.186  1.00  0.00     0.242 C 
BRANCH   9  10
HETATM   10  N   UNL     1      -0.726   1.850   1.032  1.00  0.00    -0.255 N 
HETATM   11  C   UNL     1      -1.075   2.526   2.198  1.00  0.00     0.334 C 
HETATM   12  N   UNL     1      -0.385   2.126   3.348  1.00  0.00    -0.279 N 
HETATM   13  O   UNL     1      -1.949   3.387   2.254  1.00  0.00    -0.246 OA
HETATM   14  C   UNL     1       0.828   1.483   3.269  1.00  0.00     0.146 C 
HETATM   15  C   UNL     1       1.346   1.153   2.090  1.00  0.00     0.200 C 
HETATM   16  C   UNL     1       0.566   1.369   0.852  1.00  0.00     0.292 C 
HETATM   17  F   UNL     1       2.565   0.594   1.972  1.00  0.00    -0.199 F 
HETATM   18  O   UNL     1       1.080   1.157  -0.244  1.00  0.00    -0.264 OA
BRANCH  12  19
HETATM   19  C   UNL     1      -1.041   2.406   4.621  1.00  0.00     0.232 C 
HETATM   20  O   UNL     1      -0.250   1.960   5.740  1.00  0.00    -0.366 OA
HETATM   21  C   UNL     1      -1.066   1.146   6.593  1.00  0.00     0.170 C 
HETATM   22  C   UNL     1      -2.503   1.365   6.183  1.00  0.00     0.031 C 
HETATM   23  C   UNL     1      -2.371   1.657   4.716  1.00  0.00     0.056 C 
ENDBRANCH  12  19
ENDBRANCH   9  10
ENDBRANCH   4   9
BRANCH   5  24
HETATM   24  C   UNL     1      -5.960   0.811  -1.001  1.00  0.00     0.077 A 
HETATM   25  O   UNL     1      -7.307   0.727  -0.771  1.00  0.00    -0.325 OA
HETATM   26  C   UNL     1      -7.930   0.859  -1.969  1.00  0.00     0.142 A 
HETATM   27  C   UNL     1      -7.010   1.023  -2.973  1.00  0.00     0.027 A 
HETATM   28  C   UNL     1      -5.736   0.993  -2.352  1.00  0.00     0.037 A 
ENDBRANCH   5  24
BRANCH   6  29
HETATM   29  C   UNL     1      -3.949  -2.773  -0.429  1.00  0.00    -0.012 A 
HETATM   30  C   UNL     1      -4.507  -3.703   0.453  1.00  0.00     0.015 A 
HETATM   31  C   UNL     1      -4.623  -5.048   0.090  1.00  0.00     0.024 A 
HETATM   32  C   UNL     1      -4.191  -5.463  -1.169  1.00  0.00     0.034 A 
HETATM   33  C   UNL     1      -3.624  -4.545  -2.055  1.00  0.00     0.024 A 
HETATM   34 CL   UNL     1      -4.372  -7.110  -1.631  1.00  0.00    -0.084 Cl
HETATM   35  C   UNL     1      -3.496  -3.199  -1.686  1.00  0.00     0.015 A 
ENDBRANCH   6  29
TORSDOF 5
