REMARK  7 active torsions:
REMARK  status: ('A' for Active; 'I' for Inactive)
REMARK    1  A    between atoms: N_2  and  C_9 
REMARK    2  A    between atoms: C_4  and  C_7 
REMARK    3  A    between atoms: C_7  and  C_11 
REMARK    4  A    between atoms: C_9  and  O_12 
REMARK    5  A    between atoms: O_12  and  C_15 
REMARK    6  A    between atoms: O_13  and  C_14 
REMARK    7  A    between atoms: C_14  and  C_15 
ROOT
HETATM    1  N   UNL     1      -0.722   1.307  -0.032  1.00  0.00    -0.275 N 
HETATM    2  N   UNL     1      -0.786  -1.011   0.161  1.00  0.00    -0.287 N 
HETATM    3  C   UNL     1      -1.477   0.166  -0.070  1.00  0.00     0.331 C 
HETATM    4  C   UNL     1       1.342   0.061   0.155  1.00  0.00     0.030 C 
HETATM    5  C   UNL     1       0.644   1.343  -0.100  1.00  0.00     0.257 C 
HETATM    6  C   UNL     1       0.586  -1.033   0.316  1.00  0.00     0.111 C 
HETATM    7  O   UNL     1      -2.674   0.226  -0.340  1.00  0.00    -0.246 OA
HETATM    8  O   UNL     1       1.242   2.364  -0.418  1.00  0.00    -0.267 OA
HETATM    9  H   UNL     1      -1.204   2.158  -0.278  1.00  0.00     0.173 HD
ENDROOT
BRANCH   4  10
HETATM   10  C   UNL     1       2.821  -0.010  -0.080  1.00  0.00     0.084 C 
BRANCH  10  11
HETATM   11  C   UNL     1       3.732   0.314   1.076  1.00  0.00    -0.054 A 
HETATM   12  C   UNL     1       4.204  -0.705   1.917  1.00  0.00     0.007 A 
HETATM   13  C   UNL     1       5.180  -0.434   2.878  1.00  0.00     0.001 A 
HETATM   14  C   UNL     1       5.685   0.857   3.016  1.00  0.00     0.000 A 
HETATM   15  C   UNL     1       5.195   1.885   2.212  1.00  0.00     0.001 A 
HETATM   16  C   UNL     1       4.217   1.617   1.252  1.00  0.00     0.007 A 
ENDBRANCH  10  11
ENDBRANCH   4  10
BRANCH   2  17
HETATM   17  C   UNL     1      -1.491  -2.273  -0.003  1.00  0.00     0.302 C 
BRANCH  17  18
HETATM   18  O   UNL     1      -1.557  -2.977   1.231  1.00  0.00    -0.369 OA
BRANCH  18  19
HETATM   19  C   UNL     1      -2.578  -2.452   2.081  1.00  0.00     0.196 C 
BRANCH  19  20
HETATM   20  C   UNL     1      -2.767  -3.390   3.268  1.00  0.00     0.190 C 
BRANCH  20  21
HETATM   21  O   UNL     1      -3.721  -2.844   4.170  1.00  0.00    -0.399 OA
HETATM   22  H   UNL     1      -3.790  -3.466   4.915  1.00  0.00     0.209 HD
ENDBRANCH  20  21
ENDBRANCH  19  20
ENDBRANCH  18  19
ENDBRANCH  17  18
ENDBRANCH   2  17
TORSDOF 7
