REMARK  6 active torsions:
REMARK  status: ('A' for Active; 'I' for Inactive)
REMARK    1  A    between atoms: C_9  and  C_10 
REMARK    2  A    between atoms: C_10  and  C_11 
REMARK       I    between atoms: C_11  and  N_13 
REMARK    3  A    between atoms: N_13  and  C_14 
REMARK    4  A    between atoms: C_14  and  C_15 
REMARK    5  A    between atoms: C_15  and  S_16 
REMARK    6  A    between atoms: S_16  and  C_17 
ROOT
HETATM    1  C   UNL     1       1.748   3.019  -0.094  1.00  0.00     0.222 C 
HETATM    2  O   UNL     1       0.875   2.158  -0.198  1.00  0.00    -0.273 OA
HETATM    3  N   UNL     1       1.449   4.368   0.039  1.00  0.00    -0.360 N 
HETATM    4  H   UNL     1       2.162   5.034  -0.235  1.00  0.00     0.162 HD
ENDROOT
BRANCH   1   5
HETATM    5  C   UNL     1       3.226   2.663   0.001  1.00  0.00     0.145 C 
BRANCH   5   6
HETATM    6  C   UNL     1       3.937   2.526  -1.311  1.00  0.00    -0.002 A 
HETATM    7  C   UNL     1       3.668   1.640  -2.397  1.00  0.00     0.030 A 
HETATM    8  C   UNL     1       2.587   0.632  -2.551  1.00  0.00     0.070 C 
HETATM    9  N   UNL     1       4.577   1.759  -3.371  1.00  0.00    -0.303 N 
HETATM   10  N   UNL     1       5.433   2.687  -2.925  1.00  0.00    -0.300 N 
ATOM     11  HN  UNL     1       4.611   1.255  -4.257  1.00  0.00     0.186 HD
HETATM   12  C   UNL     1       6.573   3.030  -3.743  1.00  0.00     0.177 C 
HETATM   13  C   UNL     1       5.108   3.178  -1.687  1.00  0.00     0.033 A 
HETATM   14  C   UNL     1       5.929   4.174  -0.953  1.00  0.00     0.070 C 
ENDBRANCH   5   6
ENDBRANCH   1   5
BRANCH   3  15
HETATM   15  C   UNL     1       0.058   4.803  -0.011  1.00  0.00     0.132 C 
BRANCH  15  16
HETATM   16  C   UNL     1      -0.156   6.327   0.018  1.00  0.00     0.094 C 
BRANCH  16  17
HETATM   17  S   UNL     1       0.623   7.100  -1.443  1.00  0.00    -0.163 SA
BRANCH  17  18
HETATM   18  C   UNL     1       0.060   8.835  -1.364  1.00  0.00     0.047 C 
HETATM   19  C   UNL     1       0.472   9.629  -0.127  1.00  0.00     0.015 C 
HETATM   20  C   UNL     1      -0.446  10.860  -0.134  1.00  0.00     0.001 C 
HETATM   21  C   UNL     1      -1.495  10.608  -1.218  1.00  0.00     0.001 C 
HETATM   22  C   UNL     1      -1.438   9.103  -1.469  1.00  0.00     0.015 C 
ENDBRANCH  17  18
ENDBRANCH  16  17
ENDBRANCH  15  16
ENDBRANCH   3  15
TORSDOF 6
