REMARK  6 active torsions:
REMARK  status: ('A' for Active; 'I' for Inactive)
REMARK    1  A    between atoms: N_7  and  C_8 
REMARK    2  A    between atoms: C_8  and  C_9 
REMARK       I    between atoms: C_9  and  N_11 
REMARK    3  A    between atoms: N_11  and  C_12 
REMARK    4  A    between atoms: C_12  and  C_13 
REMARK    5  A    between atoms: C_12  and  C_17 
REMARK    6  A    between atoms: C_13  and  C_14 
REMARK       I    between atoms: C_14  and  N_16 
ROOT
HETATM    1  C   UNL     1       4.665  -4.018   0.485  1.00  0.00     0.236 C 
HETATM    2  O   UNL     1       4.170  -4.350   1.558  1.00  0.00    -0.272 OA
HETATM    3  N   UNL     1       4.464  -4.709  -0.692  1.00  0.00    -0.354 N 
HETATM    4  H   UNL     1       4.812  -4.297  -1.550  1.00  0.00     0.162 HD
ENDROOT
BRANCH   3   5
HETATM    5  C   UNL     1       3.824  -6.022  -0.789  1.00  0.00     0.097 C 
BRANCH   5   6
HETATM    6  C   UNL     1       2.957  -6.034  -2.065  1.00  0.00     0.128 C 
BRANCH   6   7
HETATM    7  C   UNL     1       2.244  -7.344  -2.312  1.00  0.00     0.217 C 
HETATM    8  O   UNL     1       2.580  -8.137  -3.183  1.00  0.00    -0.274 OA
HETATM    9  N   UNL     1       1.193  -7.609  -1.488  1.00  0.00    -0.370 N 
HETATM   10  H   UNL     1       0.755  -6.894  -0.921  1.00  0.00     0.159 HD
HETATM   11  H   UNL     1       0.659  -8.445  -1.690  1.00  0.00     0.159 HD
ENDBRANCH   6   7
ENDBRANCH   5   6
BRANCH   5  12
HETATM   12  C   UNL     1       4.866  -7.191  -0.744  1.00  0.00     0.009 C 
HETATM   13  C   UNL     1       5.612  -7.350   0.602  1.00  0.00     0.007 C 
HETATM   14  C   UNL     1       6.961  -6.639   0.738  1.00  0.00     0.000 C 
HETATM   15  C   UNL     1       7.827  -6.706  -0.513  1.00  0.00     0.000 C 
HETATM   16  C   UNL     1       7.046  -6.299  -1.751  1.00  0.00     0.000 C 
HETATM   17  C   UNL     1       5.845  -7.218  -1.931  1.00  0.00     0.007 C 
ENDBRANCH   5  12
ENDBRANCH   3   5
BRANCH   1  18
HETATM   18  C   UNL     1       5.633  -2.834   0.341  1.00  0.00     0.235 C 
BRANCH  18  19
HETATM   19  N   UNL     1       5.105  -1.593   0.897  1.00  0.00    -0.301 N 
HETATM   20  C   UNL     1       5.341  -1.288   2.216  1.00  0.00     0.102 C 
HETATM   21  C   UNL     1       4.938  -0.136   2.746  1.00  0.00     0.092 C 
HETATM   22  C   UNL     1       4.202   0.827   1.915  1.00  0.00     0.252 C 
HETATM   23  N   UNL     1       3.881   0.403   0.637  1.00  0.00    -0.271 N 
HETATM   24  O   UNL     1       3.918   1.924   2.388  1.00  0.00    -0.268 OA
HETATM   25  C   UNL     1       3.054   1.258  -0.191  1.00  0.00     0.164 C 
HETATM   26  C   UNL     1       4.371  -0.763   0.054  1.00  0.00     0.331 C 
HETATM   27  O   UNL     1       4.188  -1.042  -1.133  1.00  0.00    -0.246 OA
ENDBRANCH  18  19
ENDBRANCH   1  18
TORSDOF 6
