REMARK  3 active torsions:
REMARK  status: ('A' for Active; 'I' for Inactive)
REMARK    1  A    between atoms: C_2  and  C_4 
REMARK    2  A    between atoms: C_6  and  C_12 
REMARK    3  A    between atoms: C_8  and  O_9 
REMARK       I    between atoms: C_12  and  N_14 
ROOT
HETATM    1  C   UNL     1       2.924  -1.021  -0.934  1.00  0.00     0.015 A 
HETATM    2  C   UNL     1       2.621  -2.306  -0.505  1.00  0.00     0.042 A 
HETATM    3  C   UNL     1       2.960  -3.386  -1.324  1.00  0.00     0.040 A 
HETATM    4  C   UNL     1       3.555  -3.153  -2.562  1.00  0.00     0.073 A 
HETATM    5  C   UNL     1       3.822  -1.843  -2.899  1.00  0.00     0.141 A 
HETATM    6  N   UNL     1       3.528  -0.786  -2.122  1.00  0.00    -0.340 N 
ATOM      7  HN  UNL     1       3.753   0.164  -2.419  1.00  0.00     0.167 HD
ENDROOT
BRANCH   3   8
HETATM    8  C   UNL     1       2.638  -4.780  -0.915  1.00  0.00     0.277 C 
HETATM    9  O   UNL     1       2.326  -5.589  -1.793  1.00  0.00    -0.265 OA
HETATM   10  N   UNL     1       2.649  -5.081   0.437  1.00  0.00    -0.222 N 
HETATM   11  C   UNL     1       2.515  -6.442   0.908  1.00  0.00     0.162 C 
HETATM   12  O   UNL     1       3.639  -4.400   1.202  1.00  0.00    -0.275 OA
HETATM   13  C   UNL     1       3.263  -6.499   2.212  1.00  0.00     0.051 C 
HETATM   14  C   UNL     1       4.227  -5.349   2.099  1.00  0.00     0.203 C 
ENDBRANCH   3   8
BRANCH   1  15
HETATM   15  C   UNL     1       2.556   0.165  -0.067  1.00  0.00     0.027 C 
HETATM   16  C   UNL     1       3.798   0.956   0.345  1.00  0.00     0.016 C 
HETATM   17  C   UNL     1       1.543   1.061  -0.778  1.00  0.00     0.016 C 
ENDBRANCH   1  15
BRANCH   5  18
HETATM   18  O   UNL     1       4.427  -1.526  -4.080  1.00  0.00    -0.346 OA
HETATM   19  H   UNL     1       4.630  -2.351  -4.547  1.00  0.00     0.219 HD
ENDBRANCH   5  18
TORSDOF 3
