REMARK  3 active torsions:
REMARK  status: ('A' for Active; 'I' for Inactive)
REMARK    1  A    between atoms: C_2  and  N_3 
REMARK    2  A    between atoms: C_5  and  N_6 
REMARK       I    between atoms: N_6  and  C_7 
REMARK       I    between atoms: C_7  and  N_9 
REMARK    3  A    between atoms: N_9  and  C_10 
ROOT
HETATM    1  N   UNL     1       4.303  -1.421   4.476  1.00  0.00    -0.306 N 
HETATM    2  C   UNL     1       4.914  -0.301   5.004  1.00  0.00     0.321 C 
HETATM    3  O   UNL     1       5.357   0.649   4.368  1.00  0.00    -0.247 OA
HETATM    4  N   UNL     1       4.945  -0.335   6.384  1.00  0.00    -0.338 N 
HETATM    5  H   UNL     1       3.944  -2.115   5.110  1.00  0.00     0.171 HD
HETATM    6  H   UNL     1       5.073  -1.256   6.778  1.00  0.00     0.164 HD
ENDROOT
BRANCH   1   7
HETATM    7  C   UNL     1       4.027  -1.587   3.128  1.00  0.00     0.070 A 
HETATM    8  C   UNL     1       4.326  -0.730   2.098  1.00  0.00     0.141 A 
HETATM    9  N   UNL     1       3.810  -1.286   0.966  1.00  0.00    -0.302 N 
HETATM   10  N   UNL     1       3.220  -2.479   1.176  1.00  0.00    -0.308 N 
HETATM   11  C   UNL     1       3.353  -2.657   2.497  1.00  0.00     0.138 A 
ATOM     12  HN  UNL     1       2.779  -3.097   0.494  1.00  0.00     0.186 HD
BRANCH   9  13
HETATM   13  C   UNL     1       3.833  -0.684  -0.352  1.00  0.00     0.143 C 
HETATM   14  C   UNL     1       2.613   0.186  -0.599  1.00  0.00     0.028 C 
ENDBRANCH   9  13
ENDBRANCH   1   7
BRANCH   4  15
HETATM   15  C   UNL     1       5.560   0.768   7.106  1.00  0.00     0.086 C 
HETATM   16  C   UNL     1       5.565   0.541   8.622  1.00  0.00     0.025 C 
HETATM   17  C   UNL     1       5.241   1.891   9.265  1.00  0.00     0.002 C 
HETATM   18  C   UNL     1       5.257   2.907   8.135  1.00  0.00     0.002 C 
HETATM   19  C   UNL     1       4.829   2.101   6.923  1.00  0.00     0.025 C 
ENDBRANCH   4  15
TORSDOF 3
