REMARK  3 active torsions:
REMARK  status: ('A' for Active; 'I' for Inactive)
REMARK    1  A    between atoms: C_1  and  C_8 
REMARK    2  A    between atoms: N_7  and  C_8 
REMARK    3  A    between atoms: C_14  and  O_16 
ROOT
HETATM    1  C   UNL     1      -0.478   1.112  -0.114  1.00  0.00     0.024 A 
HETATM    2  C   UNL     1       0.891   0.747  -0.282  1.00  0.00     0.164 A 
HETATM    3  N   UNL     1       1.095  -0.596  -0.150  1.00  0.00    -0.167 N 
HETATM    4  N   UNL     1      -0.157  -1.065   0.064  1.00  0.00    -0.284 N 
HETATM    5  C   UNL     1      -1.109  -0.098   0.099  1.00  0.00     0.123 A 
HETATM    6  C   UNL     1       2.016   1.714  -0.534  1.00  0.00     0.343 A 
HETATM    7  O   UNL     1       1.783   2.941  -0.686  1.00  0.00    -0.255 OA
HETATM    8  O   UNL     1       3.160   1.126  -0.550  1.00  0.00    -0.143 OA
HETATM    9  C   UNL     1      -0.375  -2.476   0.280  1.00  0.00     0.179 C 
HETATM   10 LI   UNL     2       3.089  -0.529  -0.240  1.00  0.00     0.000 Li
ENDROOT
BRANCH   1  11
HETATM   11  C   UNL     1      -1.038   2.507  -0.119  1.00  0.00     0.315 C 
BRANCH  11  12
HETATM   12  N   UNL     1      -2.509   2.516   0.015  1.00  0.00     0.095 N 
HETATM   13  C   UNL     1      -3.197   2.085  -1.216  1.00  0.00     0.304 C 
HETATM   14  C   UNL     1      -4.553   2.805  -1.191  1.00  0.00     0.148 C 
HETATM   15  C   UNL     1      -4.473   3.764  -0.010  1.00  0.00     0.064 C 
HETATM   16  C   UNL     1      -2.984   3.887   0.248  1.00  0.00     0.275 C 
BRANCH  14  17
HETATM   17  O   UNL     1      -5.639   1.901  -1.018  1.00  0.00    -0.394 OA
HETATM   18  H   UNL     1      -5.459   1.408  -0.199  1.00  0.00     0.210 HD
ENDBRANCH  14  17
ENDBRANCH  11  12
ENDBRANCH   1  11
TORSDOF 3
