REMARK  9 active torsions:
REMARK  status: ('A' for Active; 'I' for Inactive)
REMARK    1  A    between atoms: N_1  and  C_8 
REMARK    2  A    between atoms: C_6  and  N_9 
REMARK       I    between atoms: N_10  and  C_15 
REMARK    3  A    between atoms: C_15  and  C_24 
REMARK    4  A    between atoms: C_16  and  C_30 
REMARK    5  A    between atoms: C_16  and  C_31 
REMARK    6  A    between atoms: N_17  and  C_20 
REMARK    7  A    between atoms: C_20  and  C_24 
REMARK    8  A    between atoms: C_30  and  O_32 
REMARK    9  A    between atoms: C_31  and  O_33 
ROOT
HETATM    1  N   UNL     1       1.580   1.103   0.026  1.00  0.00    -0.322 N 
HETATM    2  C   UNL     1       0.356  -0.715   0.134  1.00  0.00     0.122 A 
HETATM    3  C   UNL     1       0.269   0.680   0.081  1.00  0.00     0.140 A 
HETATM    4  N   UNL     1       1.676  -1.118   0.091  1.00  0.00    -0.346 N 
ATOM      5  HN  UNL     1       2.032  -2.074   0.108  1.00  0.00     0.167 HD
HETATM    6  C   UNL     1      -0.844  -1.481   0.232  1.00  0.00     0.135 A 
HETATM    7  C   UNL     1       2.375  -0.011   0.023  1.00  0.00     0.185 A 
HETATM    8  N   UNL     1      -0.860   1.410   0.085  1.00  0.00    -0.336 N 
ATOM      9  HN  UNL     1      -0.894   2.428   0.040  1.00  0.00     0.168 HD
HETATM   10  N   UNL     1      -2.005  -0.750   0.245  1.00  0.00    -0.337 N 
ATOM     11  HN  UNL     1      -2.907  -1.220   0.320  1.00  0.00     0.168 HD
HETATM   12  C   UNL     1      -1.945   0.603   0.157  1.00  0.00     0.183 A 
ENDROOT
BRANCH   6  13
HETATM   13  N   UNL     1      -0.920  -2.896   0.249  1.00  0.00    -0.362 N 
HETATM   14  C   UNL     1       0.376  -3.618   0.267  1.00  0.00     0.144 C 
HETATM   15  C   UNL     1       0.195  -5.147   0.126  1.00  0.00     0.145 C 
HETATM   16  N   UNL     1      -0.798  -5.694   1.069  1.00  0.00    -0.348 N 
HETATM   17  C   UNL     1      -2.089  -4.985   0.968  1.00  0.00     0.145 C 
HETATM   18  C   UNL     1      -0.449  -6.776   1.875  1.00  0.00     0.231 C 
HETATM   19  C   UNL     1      -1.925  -3.452   1.187  1.00  0.00     0.144 C 
HETATM   20  O   UNL     1       0.658  -7.321   1.749  1.00  0.00    -0.272 OA
BRANCH  18  21
HETATM   21  C   UNL     1      -1.404  -7.358   2.929  1.00  0.00     0.206 C 
BRANCH  21  22
HETATM   22  C   UNL     1      -1.793  -6.230   3.871  1.00  0.00    -0.069 C 
BRANCH  22  23
HETATM   23  N   UNL     1      -2.115  -5.294   4.652  1.00  0.00    -0.369 N 
ATOM     24  HN2 UNL     1      -1.829  -6.032   4.009  1.00  0.00     0.165 HD
ATOM     25  HN1 UNL     1      -2.376  -4.537   5.284  1.00  0.00     0.165 HD
ENDBRANCH  22  23
ENDBRANCH  21  22
ENDBRANCH  18  21
ENDBRANCH   6  13
BRANCH   1  26
HETATM   26  C   UNL     1       2.195   2.402   0.036  1.00  0.00     0.094 C 
HETATM   27  C   UNL     1       1.801   3.313   1.231  1.00  0.00     0.039 C 
HETATM   28  C   UNL     1       2.093   4.532   0.278  1.00  0.00     0.006 C 
HETATM   29  C   UNL     1       1.616   3.536  -0.854  1.00  0.00     0.039 C 
BRANCH  28  30
HETATM   30  C   UNL     1       1.196   5.752   0.470  1.00  0.00     0.175 C 
BRANCH  30  31
HETATM   31  O   UNL     1       1.445   6.327   1.751  1.00  0.00    -0.400 OA
HETATM   32  H   UNL     1       0.985   5.771   2.407  1.00  0.00     0.209 HD
ENDBRANCH  30  31
ENDBRANCH  28  30
BRANCH  28  33
HETATM   33  C   UNL     1       3.572   4.963   0.161  1.00  0.00     0.175 C 
BRANCH  33  34
HETATM   34  O   UNL     1       4.080   5.333   1.438  1.00  0.00    -0.400 OA
HETATM   35  H   UNL     1       3.540   6.090   1.745  1.00  0.00     0.209 HD
ENDBRANCH  33  34
ENDBRANCH  28  33
ENDBRANCH   1  26
TORSDOF 9
