REMARK  4 active torsions:
REMARK  status: ('A' for Active; 'I' for Inactive)
REMARK    1  A    between atoms: C_4  and  N_5 
REMARK       I    between atoms: N_5  and  C_6 
REMARK       I    between atoms: C_6  and  N_8 
REMARK    2  A    between atoms: N_8  and  C_9 
REMARK    3  A    between atoms: C_9  and  C_10 
REMARK    4  A    between atoms: C_9  and  C_13 
ROOT
HETATM    1  N   UNL     1       6.722   1.690  -0.802  1.00  0.00    -0.293 N 
HETATM    2  C   UNL     1       6.820   3.034  -1.040  1.00  0.00     0.322 C 
HETATM    3  O   UNL     1       6.760   3.455  -2.193  1.00  0.00    -0.247 OA
HETATM    4  N   UNL     1       6.888   3.832   0.056  1.00  0.00    -0.337 N 
HETATM    5  H   UNL     1       6.512   1.136  -1.619  1.00  0.00     0.172 HD
HETATM    6  H   UNL     1       7.103   3.375   0.934  1.00  0.00     0.164 HD
ENDROOT
BRANCH   1   7
HETATM    7  C   UNL     1       6.771   1.060   0.426  1.00  0.00     0.132 A 
HETATM    8  C   UNL     1       6.356  -0.268   0.677  1.00  0.00     0.084 A 
HETATM    9  C   UNL     1       6.515  -0.430   2.033  1.00  0.00     0.076 A 
HETATM   10  C   UNL     1       6.225  -1.499   3.000  1.00  0.00     0.079 C 
HETATM   11  O   UNL     1       7.048   0.706   2.554  1.00  0.00    -0.241 OA
HETATM   12  N   UNL     1       7.203   1.637   1.555  1.00  0.00    -0.245 N 
ATOM     13  HN  UNL     1       7.574   2.582   1.654  1.00  0.00     0.196 HD
ENDBRANCH   1   7
BRANCH   4  14
HETATM   14  C   UNL     1       6.904   5.270   0.042  1.00  0.00     0.094 C 
BRANCH  14  15
HETATM   15  C   UNL     1       6.183   5.744   1.283  1.00  0.00     0.009 A 
HETATM   16  C   UNL     1       4.735   5.381   1.528  1.00  0.00     0.007 A 
HETATM   17  C   UNL     1       5.107   6.795   1.186  1.00  0.00     0.007 A 
ENDBRANCH  14  15
BRANCH  14  18
HETATM   18  C   UNL     1       8.340   5.726   0.046  1.00  0.00     0.009 A 
HETATM   19  C   UNL     1       8.682   7.193  -0.030  1.00  0.00     0.007 A 
HETATM   20  C   UNL     1       8.964   6.296  -1.202  1.00  0.00     0.007 A 
ENDBRANCH  14  18
ENDBRANCH   4  14
TORSDOF 4
