REMARK  3 active torsions:
REMARK  status: ('A' for Active; 'I' for Inactive)
REMARK    1  A    between atoms: C_3  and  C_8 
REMARK    2  A    between atoms: C_6  and  C_11 
REMARK    3  A    between atoms: C_13  and  O_14 
ROOT
HETATM    1  N   UNL     1       2.975   2.850  -2.139  1.00  0.00    -0.328 N 
ATOM      2  HN  UNL     1       2.809   3.823  -1.880  1.00  0.00     0.169 HD
HETATM    3  C   UNL     1       2.832   1.747  -1.377  1.00  0.00     0.131 A 
HETATM    4  N   UNL     1       3.146   0.629  -2.060  1.00  0.00    -0.285 N 
ATOM      5  HN  UNL     1       3.121  -0.329  -1.709  1.00  0.00     0.188 HD
HETATM    6  C   UNL     1       3.389   2.361  -3.323  1.00  0.00     0.131 A 
HETATM    7  N   UNL     1       3.493   1.018  -3.273  1.00  0.00    -0.283 N 
HETATM    8  H   UNL     1       3.789   0.366  -4.034  1.00  0.00     0.188 HD
ENDROOT
BRANCH   3   9
HETATM    9  C   UNL     1       2.345   1.747   0.059  1.00  0.00     0.291 C 
HETATM   10  N   UNL     1       3.363   1.168   0.963  1.00  0.00     0.098 N 
HETATM   11  C   UNL     1       3.941   2.291   1.714  1.00  0.00     0.302 C 
HETATM   12  H   UNL     1       4.101   0.636   0.448  1.00  0.00     0.317 HD
HETATM   13  C   UNL     1       3.486   3.556   0.997  1.00  0.00     0.148 C 
HETATM   14  C   UNL     1       2.083   3.158   0.593  1.00  0.00     0.077 C 
BRANCH  13  15
HETATM   15  O   UNL     1       3.553   4.712   1.792  1.00  0.00    -0.394 OA
HETATM   16  H   UNL     1       2.944   4.585   2.566  1.00  0.00     0.210 HD
ENDBRANCH  13  15
ENDBRANCH   3   9
BRANCH   6  17
HETATM   17  C   UNL     1       3.667   3.216  -4.500  1.00  0.00     0.009 A 
HETATM   18  C   UNL     1       3.531   4.612  -4.387  1.00  0.00     0.015 A 
HETATM   19  C   UNL     1       3.772   5.442  -5.484  1.00  0.00     0.001 A 
HETATM   20  C   UNL     1       4.153   4.889  -6.707  1.00  0.00     0.000 A 
HETATM   21  C   UNL     1       4.295   3.505  -6.835  1.00  0.00     0.001 A 
HETATM   22  C   UNL     1       4.056   2.670  -5.739  1.00  0.00     0.015 A 
ENDBRANCH   6  17
TORSDOF 3
