REMARK  5 active torsions:
REMARK  status: ('A' for Active; 'I' for Inactive)
REMARK    1  A    between atoms: C_2  and  N_4 
REMARK       I    between atoms: N_4  and  C_5 
REMARK    2  A    between atoms: C_5  and  C_7 
REMARK    3  A    between atoms: C_7  and  C_8 
REMARK    4  A    between atoms: C_8  and  C_9 
REMARK    5  A    between atoms: C_14  and  N_18 
ROOT
HETATM    1  C   UNL     1       6.980  -2.842  -3.677  1.00  0.00     0.034 C 
HETATM    2  C   UNL     1       6.879  -4.191  -3.660  1.00  0.00     0.034 C 
HETATM    3  C   UNL     1       6.321  -4.967  -2.493  1.00  0.00     0.069 C 
HETATM    4  N   UNL     1       7.306  -5.010  -4.691  1.00  0.00    -0.195 N 
ATOM      5  HN  UNL     1       7.338  -6.023  -4.573  1.00  0.00     0.184 HD
HETATM    6  C   UNL     1       7.664  -4.463  -5.808  1.00  0.00     0.683 C 
HETATM    7  N   UNL     1       7.688  -3.112  -5.957  1.00  0.00    -0.156 N 
HETATM    8  C   UNL     1       7.616  -2.279  -4.893  1.00  0.00     0.267 C 
HETATM    9  O   UNL     1       8.070  -1.143  -4.960  1.00  0.00    -0.267 OA
HETATM   10  H   UNL     1       8.169  -2.747  -6.761  1.00  0.00     0.187 HD
ENDROOT
BRANCH   1  11
HETATM   11  C   UNL     1       6.534  -1.885  -2.590  1.00  0.00     0.055 C 
BRANCH  11  12
HETATM   12  C   UNL     1       5.998  -0.529  -3.069  1.00  0.00     0.107 C 
BRANCH  12  13
HETATM   13  C   UNL     1       5.516   0.342  -1.932  1.00  0.00     0.218 C 
HETATM   14  N   UNL     1       5.088   1.581  -2.369  1.00  0.00    -0.357 N 
HETATM   15  H   UNL     1       5.307   1.849  -3.320  1.00  0.00     0.162 HD
HETATM   16  O   UNL     1       5.502  -0.012  -0.759  1.00  0.00    -0.274 OA
BRANCH  14  17
HETATM   17  C   UNL     1       4.679   2.626  -1.444  1.00  0.00     0.076 C 
HETATM   18  C   UNL     1       5.879   3.466  -1.015  1.00  0.00     0.032 C 
HETATM   19  C   UNL     1       3.608   3.497  -2.091  1.00  0.00     0.032 C 
ENDBRANCH  14  17
ENDBRANCH  12  13
ENDBRANCH  11  12
ENDBRANCH   1  11
BRANCH   6  20
HETATM   20  N   UNL     1       8.089  -5.152  -6.915  1.00  0.00    -0.213 N 
HETATM   21  C   UNL     1       7.434  -4.973  -8.221  1.00  0.00     0.167 C 
HETATM   22  C   UNL     1       6.650  -6.233  -8.607  1.00  0.00     0.188 C 
HETATM   23  O   UNL     1       7.495  -7.393  -8.592  1.00  0.00    -0.388 OA
HETATM   24  C   UNL     1       8.015  -7.604  -7.268  1.00  0.00     0.188 C 
HETATM   25  C   UNL     1       8.843  -6.404  -6.798  1.00  0.00     0.167 C 
ENDBRANCH   6  20
TORSDOF 5
