REMARK  4 active torsions:
REMARK  status: ('A' for Active; 'I' for Inactive)
REMARK       I    between atoms: C_2  and  N_3 
REMARK       I    between atoms: C_2  and  N_16 
REMARK    1  A    between atoms: N_3  and  C_4 
REMARK    2  A    between atoms: N_7  and  C_8 
REMARK    3  A    between atoms: C_8  and  C_9 
REMARK    4  A    between atoms: N_16  and  C_17 
ROOT
HETATM    1  O   UNL     1       1.980  -1.949  -0.816  1.00  0.00    -0.247 OA
HETATM    2  C   UNL     1       2.690  -1.068  -0.349  1.00  0.00     0.321 C 
HETATM    3  N   UNL     1       2.799   0.177  -0.938  1.00  0.00    -0.338 N 
HETATM    4  N   UNL     1       3.464  -1.152   0.789  1.00  0.00    -0.309 N 
HETATM    5  H   UNL     1       3.640   0.693  -0.731  1.00  0.00     0.164 HD
HETATM    6  H   UNL     1       3.933  -0.306   1.071  1.00  0.00     0.170 HD
ENDROOT
BRANCH   3   7
HETATM    7  C   UNL     1       2.179   0.433  -2.240  1.00  0.00     0.089 C 
HETATM    8  C   UNL     1       3.081  -0.054  -3.381  1.00  0.00     0.055 C 
HETATM    9  C   UNL     1       4.287   0.869  -3.560  1.00  0.00     0.274 C 
HETATM   10  N   UNL     1       3.924   2.274  -3.790  1.00  0.00     0.088 N 
HETATM   11  C   UNL     1       3.084   2.769  -2.683  1.00  0.00     0.274 C 
HETATM   12  C   UNL     1       1.842   1.916  -2.404  1.00  0.00     0.055 C 
BRANCH  10  13
HETATM   13  C   UNL     1       3.284   2.527  -5.095  1.00  0.00     0.277 C 
BRANCH  13  14
HETATM   14  C   UNL     1       4.105   2.119  -6.329  1.00  0.00     0.014 C 
HETATM   15  C   UNL     1       5.432   2.878  -6.497  1.00  0.00     0.006 C 
HETATM   16  C   UNL     1       5.462   3.368  -7.945  1.00  0.00     0.000 C 
HETATM   17  C   UNL     1       4.420   2.534  -8.670  1.00  0.00     0.000 C 
HETATM   18  C   UNL     1       3.330   2.372  -7.627  1.00  0.00     0.006 C 
ENDBRANCH  13  14
ENDBRANCH  10  13
ENDBRANCH   3   7
BRANCH   4  19
HETATM   19  C   UNL     1       3.622  -2.277   1.625  1.00  0.00     0.038 A 
HETATM   20  C   UNL     1       2.987  -3.498   1.409  1.00  0.00     0.046 A 
HETATM   21  C   UNL     1       3.221  -4.533   2.297  1.00  0.00     0.090 A 
HETATM   22  N   UNL     1       4.039  -4.438   3.364  1.00  0.00    -0.375 N 
HETATM   23  C   UNL     1       4.645  -3.249   3.557  1.00  0.00     0.090 A 
ATOM     24  HN  UNL     1       4.192  -5.226   3.994  1.00  0.00     0.164 HD
HETATM   25  C   UNL     1       4.471  -2.153   2.727  1.00  0.00     0.046 A 
ENDBRANCH   4  19
TORSDOF 4
