REMARK  6 active torsions:
REMARK  status: ('A' for Active; 'I' for Inactive)
REMARK    1  A    between atoms: C_2  and  N_3 
REMARK    2  A    between atoms: N_3  and  C_4 
REMARK    3  A    between atoms: N_3  and  C_6 
REMARK    4  A    between atoms: C_9  and  N_10 
REMARK       I    between atoms: N_10  and  C_11 
REMARK    5  A    between atoms: C_11  and  C_13 
REMARK    6  A    between atoms: N_15  and  C_16 
ROOT
HETATM    1  C   UNL     1       4.475  -1.586   0.617  1.00  0.00     0.102 A 
HETATM    2  C   UNL     1       4.784  -2.902   0.285  1.00  0.00     0.050 A 
HETATM    3  C   UNL     1       6.101  -3.273  -0.000  1.00  0.00     0.035 A 
HETATM    4  C   UNL     1       7.113  -2.328   0.022  1.00  0.00     0.050 A 
HETATM    5  C   UNL     1       6.721  -1.022   0.263  1.00  0.00     0.119 A 
HETATM    6  N   UNL     1       5.448  -0.644   0.559  1.00  0.00    -0.350 N 
ATOM      7  HN  UNL     1       5.228   0.336   0.735  1.00  0.00     0.166 HD
ENDROOT
BRANCH   4   8
HETATM    8  N   UNL     1       8.475  -2.639  -0.189  1.00  0.00    -0.324 N 
HETATM    9  C   UNL     1       9.041  -3.903  -0.056  1.00  0.00     0.253 C 
HETATM   10  O   UNL     1       8.423  -4.915   0.275  1.00  0.00    -0.270 OA
HETATM   11  H   UNL     1       9.127  -1.865  -0.329  1.00  0.00     0.169 HD
BRANCH   9  12
HETATM   12  C   UNL     1      10.549  -4.007  -0.385  1.00  0.00     0.241 C 
HETATM   13  C   UNL     1      11.381  -2.774   0.019  1.00  0.00     0.314 C 
HETATM   14  N   UNL     1      11.154  -1.627  -0.897  1.00  0.00     0.093 N 
HETATM   15  C   UNL     1      11.420  -2.089  -2.287  1.00  0.00     0.298 C 
HETATM   16  C   UNL     1      10.607  -3.340  -2.656  1.00  0.00     0.199 C 
HETATM   17  O   UNL     1      10.835  -4.402  -1.730  1.00  0.00    -0.373 OA
BRANCH  14  18
HETATM   18  C   UNL     1      12.050  -0.494  -0.594  1.00  0.00     0.268 C 
HETATM   19  C   UNL     1      11.835   0.100   0.793  1.00  0.00     0.037 C 
ENDBRANCH  14  18
ENDBRANCH   9  12
ENDBRANCH   4   8
BRANCH   1  20
HETATM   20  N   UNL     1       3.179  -1.211   1.010  1.00  0.00    -0.368 N 
BRANCH  20  21
HETATM   21  C   UNL     1       2.305  -2.195   1.663  1.00  0.00     0.120 C 
HETATM   22  C   UNL     1       2.868  -2.758   2.963  1.00  0.00     0.026 C 
ENDBRANCH  20  21
BRANCH  20  23
HETATM   23  C   UNL     1       3.048   0.229   1.288  1.00  0.00     0.120 C 
HETATM   24  C   UNL     1       1.644   0.696   1.647  1.00  0.00     0.026 C 
ENDBRANCH  20  23
ENDBRANCH   1  20
TORSDOF 6
