REMARK  7 active torsions:
REMARK  status: ('A' for Active; 'I' for Inactive)
REMARK       I    between atoms: C_2  and  N_4 
REMARK    1  A    between atoms: N_4  and  C_5 
REMARK    2  A    between atoms: C_5  and  C_6 
REMARK    3  A    between atoms: C_6  and  C_7 
REMARK    4  A    between atoms: N_16  and  C_17 
REMARK    5  A    between atoms: C_17  and  C_18 
REMARK    6  A    between atoms: C_18  and  O_19 
REMARK    7  A    between atoms: O_19  and  C_20 
ROOT
HETATM    1  C   UNL     1       6.724  -1.417  -2.247  1.00  0.00     0.086 A 
HETATM    2  N   UNL     1       7.425  -0.411  -2.724  1.00  0.00    -0.344 N 
ATOM      3  HN  UNL     1       7.063   0.454  -3.125  1.00  0.00     0.167 HD
HETATM    4  C   UNL     1       8.737  -0.763  -2.572  1.00  0.00     0.060 A 
HETATM    5  C   UNL     1       9.884  -0.034  -2.930  1.00  0.00     0.032 A 
HETATM    6  C   UNL     1      11.148  -0.575  -2.674  1.00  0.00     0.002 A 
HETATM    7  C   UNL     1      11.268  -1.820  -2.072  1.00  0.00     0.002 A 
HETATM    8  C   UNL     1      10.135  -2.560  -1.717  1.00  0.00     0.032 A 
HETATM    9  C   UNL     1       8.862  -2.017  -1.974  1.00  0.00     0.062 A 
HETATM   10  N   UNL     1       7.552  -2.426  -1.772  1.00  0.00    -0.333 N 
ENDROOT
BRANCH  10  11
HETATM   11  C   UNL     1       7.046  -3.657  -1.166  1.00  0.00     0.157 C 
BRANCH  11  12
HETATM   12  C   UNL     1       8.107  -4.597  -0.616  1.00  0.00     0.196 C 
BRANCH  12  13
HETATM   13  O   UNL     1       7.566  -5.769  -0.003  1.00  0.00    -0.349 OA
BRANCH  13  14
HETATM   14  C   UNL     1       8.544  -6.651   0.418  1.00  0.00     0.074 A 
HETATM   15  C   UNL     1       9.810  -6.249   0.872  1.00  0.00     0.037 A 
HETATM   16  C   UNL     1      10.757  -7.189   1.281  1.00  0.00     0.003 A 
HETATM   17  C   UNL     1      10.442  -8.542   1.262  1.00  0.00     0.001 A 
HETATM   18  C   UNL     1       9.181  -8.954   0.829  1.00  0.00     0.009 A 
HETATM   19  C   UNL     1       8.222  -8.018   0.404  1.00  0.00    -0.029 A 
HETATM   20  C   UNL     1       6.892  -8.496  -0.104  1.00  0.00     0.051 C 
ENDBRANCH  13  14
ENDBRANCH  12  13
ENDBRANCH  11  12
ENDBRANCH  10  11
BRANCH   1  21
HETATM   21  C   UNL     1       5.231  -1.458  -2.195  1.00  0.00     0.096 C 
BRANCH  21  22
HETATM   22  C   UNL     1       4.599  -0.690  -3.361  1.00  0.00     0.130 C 
BRANCH  22  23
HETATM   23  N   UNL     1       3.146  -0.703  -3.315  1.00  0.00    -0.361 N 
HETATM   24  C   UNL     1       2.424  -1.855  -3.528  1.00  0.00     0.213 C 
HETATM   25  C   UNL     1       0.937  -1.644  -3.507  1.00  0.00     0.117 C 
HETATM   26  O   UNL     1       2.931  -2.955  -3.715  1.00  0.00    -0.274 OA
HETATM   27  H   UNL     1       2.661   0.180  -3.219  1.00  0.00     0.162 HD
ENDBRANCH  22  23
ENDBRANCH  21  22
ENDBRANCH   1  21
TORSDOF 7
