REMARK  4 active torsions:
REMARK  status: ('A' for Active; 'I' for Inactive)
REMARK    1  A    between atoms: O_1  and  C_2 
REMARK    2  A    between atoms: C_6  and  N_7 
REMARK       I    between atoms: N_7  and  C_8 
REMARK    3  A    between atoms: C_8  and  C_10 
REMARK    4  A    between atoms: C_10  and  C_13 
ROOT
HETATM    1  N   UNL     1       1.967   1.285   2.077  1.00  0.00    -0.348 N 
HETATM    2  C   UNL     1       0.816   2.057   1.992  1.00  0.00     0.297 C 
HETATM    3  O   UNL     1       0.465   2.582   0.931  1.00  0.00    -0.266 OA
HETATM    4  H   UNL     1       2.149   0.771   2.935  1.00  0.00     0.163 HD
ENDROOT
BRANCH   2   5
HETATM    5  C   UNL     1       0.053   2.264   3.322  1.00  0.00     0.364 C 
HETATM    6  F   UNL     1      -1.305   2.257   3.108  1.00  0.00    -0.188 F 
HETATM    7  F   UNL     1       0.268   1.203   4.170  1.00  0.00    -0.188 F 
BRANCH   5   8
HETATM    8  C   UNL     1       0.531   3.586   3.916  1.00  0.00     0.091 A 
HETATM    9  C   UNL     1      -0.125   4.773   3.580  1.00  0.00     0.032 A 
HETATM   10  C   UNL     1       0.376   5.981   4.059  1.00  0.00     0.003 A 
HETATM   11  C   UNL     1       1.511   5.978   4.859  1.00  0.00     0.017 A 
HETATM   12  C   UNL     1       2.103   4.761   5.155  1.00  0.00     0.088 A 
HETATM   13  N   UNL     1       1.644   3.574   4.705  1.00  0.00    -0.364 N 
ATOM     14  HN  UNL     1       2.112   2.700   4.946  1.00  0.00     0.165 HD
ENDBRANCH   5   8
ENDBRANCH   2   5
BRANCH   1  15
HETATM   15  C   UNL     1       2.804   1.025   0.917  1.00  0.00     0.113 C 
HETATM   16  C   UNL     1       3.745  -0.172   1.109  1.00  0.00     0.140 C 
HETATM   17  C   UNL     1       4.962   0.385   1.842  1.00  0.00     0.034 C 
HETATM   18  C   UNL     1       4.992   1.881   1.537  1.00  0.00     0.005 C 
HETATM   19  C   UNL     1       3.781   2.169   0.649  1.00  0.00     0.028 C 
BRANCH  16  20
HETATM   20  O   UNL     1       3.137  -1.223   1.845  1.00  0.00    -0.394 OA
HETATM   21  H   UNL     1       3.751  -1.978   1.834  1.00  0.00     0.210 HD
ENDBRANCH  16  20
ENDBRANCH   1  15
TORSDOF 4
