REMARK  6 active torsions:
REMARK  status: ('A' for Active; 'I' for Inactive)
REMARK    1  A    between atoms: C_2  and  C_4 
REMARK    2  A    between atoms: C_4  and  C_5 
REMARK    3  A    between atoms: C_5  and  C_6 
REMARK    4  A    between atoms: C_6  and  N_7 
REMARK       I    between atoms: N_7  and  C_8 
REMARK    5  A    between atoms: C_8  and  C_10 
REMARK    6  A    between atoms: C_10  and  C_11 
ROOT
HETATM    1  N   UNL     1       4.269   2.422  -1.874  1.00  0.00    -0.360 N 
HETATM    2  C   UNL     1       3.834   3.454  -2.674  1.00  0.00     0.223 C 
HETATM    3  O   UNL     1       3.936   3.445  -3.899  1.00  0.00    -0.273 OA
HETATM    4  H   UNL     1       4.208   2.524  -0.864  1.00  0.00     0.162 HD
ENDROOT
BRANCH   1   5
HETATM    5  C   UNL     1       4.952   1.265  -2.427  1.00  0.00     0.132 C 
BRANCH   5   6
HETATM    6  C   UNL     1       4.618   0.034  -1.573  1.00  0.00    -0.024 C 
HETATM    7  C   UNL     1       5.427  -1.242  -1.963  1.00  0.00     0.011 C 
HETATM    8  C   UNL     1       6.404  -0.984  -0.821  1.00  0.00     0.002 C 
HETATM    9  C   UNL     1       5.407   0.017  -0.219  1.00  0.00     0.011 C 
BRANCH   6  10
HETATM   10  C   UNL     1       3.102  -0.251  -1.427  1.00  0.00     0.015 C 
BRANCH  10  11
HETATM   11  C   UNL     1       2.346  -0.412  -2.768  1.00  0.00    -0.022 C 
HETATM   12  C   UNL     1       2.805  -1.613  -3.597  1.00  0.00     0.009 C 
HETATM   13  C   UNL     1       0.841  -0.552  -2.513  1.00  0.00     0.009 C 
ENDBRANCH  10  11
ENDBRANCH   6  10
ENDBRANCH   5   6
ENDBRANCH   1   5
BRANCH   2  14
HETATM   14  C   UNL     1       3.195   4.621  -1.940  1.00  0.00     0.161 C 
BRANCH  14  15
HETATM   15  C   UNL     1       1.719   4.478  -1.876  1.00  0.00     0.043 A 
HETATM   16  C   UNL     1       0.795   4.353  -2.941  1.00  0.00     0.061 A 
HETATM   17  C   UNL     1      -0.432   4.336  -2.328  1.00  0.00     0.074 A 
HETATM   18  C   UNL     1      -1.823   4.268  -2.810  1.00  0.00     0.079 C 
HETATM   19  O   UNL     1      -0.261   4.422  -0.983  1.00  0.00    -0.243 OA
HETATM   20  N   UNL     1       1.090   4.511  -0.693  1.00  0.00    -0.265 N 
ATOM     21  HN  UNL     1       1.518   4.586   0.230  1.00  0.00     0.194 HD
ENDBRANCH  14  15
ENDBRANCH   2  14
TORSDOF 6
