REMARK  4 active torsions:
REMARK  status: ('A' for Active; 'I' for Inactive)
REMARK    1  A    between atoms: C_8  and  C_9 
REMARK    2  A    between atoms: C_9  and  O_10 
REMARK    3  A    between atoms: C_9  and  C_11 
REMARK    4  A    between atoms: C_11  and  N_12 
ROOT
HETATM    1  C   UNL     1       2.399  -2.405   0.062  1.00  0.00     0.170 C 
ENDROOT
BRANCH   1   2
HETATM    2  C   UNL     1       3.047  -1.022   0.034  1.00  0.00    -0.022 A 
HETATM    3  C   UNL     1       2.547   0.144   0.664  1.00  0.00    -0.050 A 
HETATM    4  C   UNL     1       1.250   0.209   1.423  1.00  0.00     0.049 C 
HETATM    5  C   UNL     1       3.299   1.336   0.606  1.00  0.00     0.049 A 
HETATM    6  C   UNL     1       4.526   1.377  -0.039  1.00  0.00     0.117 A 
HETATM    7  F   UNL     1       5.224   2.519  -0.060  1.00  0.00    -0.206 F 
HETATM    8  C   UNL     1       5.041   0.246  -0.646  1.00  0.00     0.043 A 
HETATM    9  C   UNL     1       4.309  -0.941  -0.605  1.00  0.00     0.013 A 
ENDBRANCH   1   2
BRANCH   1  10
HETATM   10  O   UNL     1       2.892  -3.056   1.233  1.00  0.00    -0.389 OA
HETATM   11  H   UNL     1       2.185  -3.068   1.906  1.00  0.00     0.210 HD
ENDBRANCH   1  10
BRANCH   1  12
HETATM   12  C   UNL     1       0.863  -2.481  -0.070  1.00  0.00     0.169 C 
BRANCH  12  13
HETATM   13  N   UNL     1       0.347  -3.843  -0.199  1.00  0.00    -0.307 N 
HETATM   14  C   UNL     1       0.158  -4.412  -1.427  1.00  0.00     0.186 A 
HETATM   15  N   UNL     1      -0.361  -5.574  -1.635  1.00  0.00    -0.355 N 
HETATM   16  C   UNL     1      -0.800  -6.277  -0.537  1.00  0.00     0.017 A 
ATOM     17  HN  UNL     1      -0.443  -5.957  -2.577  1.00  0.00     0.166 HD
HETATM   18  C   UNL     1      -1.493  -7.573  -0.868  1.00  0.00     0.069 C 
HETATM   19  C   UNL     1      -0.648  -5.853   0.733  1.00  0.00     0.028 A 
HETATM   20  C   UNL     1      -1.138  -6.543   1.969  1.00  0.00     0.056 C 
HETATM   21  C   UNL     1       0.042  -4.551   0.943  1.00  0.00     0.256 A 
HETATM   22  O   UNL     1       0.293  -4.139   2.075  1.00  0.00    -0.267 OA
ENDBRANCH  12  13
ENDBRANCH   1  12
TORSDOF 4
