REMARK  8 active torsions:
REMARK  status: ('A' for Active; 'I' for Inactive)
REMARK    1  A    between atoms: C_2  and  C_3 
REMARK    2  A    between atoms: C_3  and  C_4 
REMARK    3  A    between atoms: C_3  and  C_6 
REMARK    4  A    between atoms: C_3  and  C_18 
REMARK    5  A    between atoms: C_6  and  N_7 
REMARK       I    between atoms: N_7  and  C_8 
REMARK    6  A    between atoms: C_8  and  C_10 
REMARK    7  A    between atoms: C_10  and  C_11 
REMARK    8  A    between atoms: C_18  and  O_20 
ROOT
HETATM    1  N   UNL     1       1.034   1.960  -2.094  1.00  0.00    -0.359 N 
HETATM    2  C   UNL     1       0.285   2.800  -1.294  1.00  0.00     0.223 C 
HETATM    3  O   UNL     1       0.797   3.478  -0.405  1.00  0.00    -0.273 OA
HETATM    4  H   UNL     1       0.567   1.438  -2.828  1.00  0.00     0.162 HD
ENDROOT
BRANCH   1   5
HETATM    5  C   UNL     1       2.471   1.815  -1.940  1.00  0.00     0.143 C 
BRANCH   5   6
HETATM    6  C   UNL     1       2.920   0.416  -1.444  1.00  0.00     0.060 C 
BRANCH   6   7
HETATM    7  C   UNL     1       2.543  -0.638  -2.538  1.00  0.00     0.018 C 
HETATM    8  C   UNL     1       2.996  -2.074  -2.277  1.00  0.00     0.006 C 
ENDBRANCH   6   7
BRANCH   6   9
HETATM    9  C   UNL     1       4.454   0.417  -1.162  1.00  0.00     0.018 C 
HETATM   10  C   UNL     1       5.346   0.738  -2.359  1.00  0.00     0.006 C 
ENDBRANCH   6   9
BRANCH   6  11
HETATM   11  C   UNL     1       2.167   0.094  -0.140  1.00  0.00     0.150 C 
HETATM   12  O   UNL     1       1.344  -0.808  -0.028  1.00  0.00    -0.649 OA
BRANCH  11  13
HETATM   13  O   UNL     1       2.456   0.884   0.914  1.00  0.00    -0.776 OA
HETATM   14  H   UNL     1       2.977   1.687   0.727  1.00  0.00     0.167 HD
ENDBRANCH  11  13
ENDBRANCH   6  11
ENDBRANCH   5   6
ENDBRANCH   1   5
BRANCH   2  15
HETATM   15  C   UNL     1      -1.206   2.801  -1.590  1.00  0.00     0.160 C 
BRANCH  15  16
HETATM   16  C   UNL     1      -1.729   4.118  -2.070  1.00  0.00     0.025 A 
HETATM   17  C   UNL     1      -1.286   5.388  -1.746  1.00  0.00     0.077 A 
HETATM   18  S   UNL     1      -2.268   6.575  -2.492  1.00  0.00    -0.087 SA
HETATM   19  C   UNL     1      -3.237   5.331  -3.170  1.00  0.00     0.047 A 
HETATM   20  C   UNL     1      -4.445   5.663  -3.975  1.00  0.00     0.076 C 
HETATM   21  N   UNL     1      -2.842   4.103  -2.905  1.00  0.00    -0.357 N 
ATOM     22  HN  UNL     1      -3.289   3.259  -3.262  1.00  0.00     0.166 HD
ENDBRANCH  15  16
ENDBRANCH   2  15
TORSDOF 8
