REMARK  6 active torsions:
REMARK  status: ('A' for Active; 'I' for Inactive)
REMARK    1  A    between atoms: N_5  and  C_6 
REMARK    2  A    between atoms: C_11  and  C_12 
REMARK    3  A    between atoms: C_12  and  C_13 
REMARK       I    between atoms: C_13  and  N_15 
REMARK    4  A    between atoms: N_15  and  C_16 
REMARK    5  A    between atoms: C_16  and  C_19 
REMARK    6  A    between atoms: C_19  and  O_21 
ROOT
HETATM    1  C   UNL     1       3.344   2.634  -0.043  1.00  0.00     0.145 C 
ENDROOT
BRANCH   1   2
HETATM    2  C   UNL     1       3.585   1.161   0.024  1.00  0.00    -0.002 A 
HETATM    3  C   UNL     1       3.258   0.156  -0.929  1.00  0.00     0.031 A 
HETATM    4  C   UNL     1       2.532   0.286  -2.219  1.00  0.00     0.070 C 
HETATM    5  N   UNL     1       3.723  -1.044  -0.566  1.00  0.00    -0.298 N 
HETATM    6  N   UNL     1       4.369  -0.825   0.602  1.00  0.00    -0.236 N 
ATOM      7  HN  UNL     1       3.614  -1.929  -1.061  1.00  0.00     0.187 HD
HETATM    8  C   UNL     1       4.316   0.491   0.997  1.00  0.00     0.039 A 
HETATM    9  C   UNL     1       4.986   1.008   2.221  1.00  0.00     0.070 C 
BRANCH   6  10
HETATM   10  C   UNL     1       5.044  -1.934   1.275  1.00  0.00     0.479 C 
HETATM   11  F   UNL     1       6.373  -1.682   1.439  1.00  0.00    -0.189 F 
HETATM   12  F   UNL     1       4.533  -2.140   2.520  1.00  0.00    -0.189 F 
ENDBRANCH   6  10
ENDBRANCH   1   2
BRANCH   1  13
HETATM   13  C   UNL     1       1.914   3.123  -0.174  1.00  0.00     0.223 C 
HETATM   14  O   UNL     1       1.688   4.176  -0.774  1.00  0.00    -0.273 OA
HETATM   15  N   UNL     1       0.918   2.429   0.469  1.00  0.00    -0.342 N 
HETATM   16  H   UNL     1       1.137   1.557   0.949  1.00  0.00     0.163 HD
BRANCH  15  17
HETATM   17  C   UNL     1      -0.505   2.854   0.478  1.00  0.00     0.111 C 
HETATM   18  C   UNL     1      -0.664   4.196   1.212  1.00  0.00     0.050 C 
HETATM   19  C   UNL     1      -1.058   2.909  -0.953  1.00  0.00     0.050 C 
BRANCH  17  20
HETATM   20  C   UNL     1      -1.306   1.785   1.263  1.00  0.00     0.168 C 
HETATM   21  O   UNL     1      -0.790   0.802   1.784  1.00  0.00    -0.648 OA
BRANCH  20  22
HETATM   22  O   UNL     1      -2.640   2.014   1.360  1.00  0.00    -0.775 OA
HETATM   23  H   UNL     1      -2.966   2.824   0.922  1.00  0.00     0.167 HD
ENDBRANCH  20  22
ENDBRANCH  17  20
ENDBRANCH  15  17
ENDBRANCH   1  13
TORSDOF 6
