REMARK  4 active torsions:
REMARK  status: ('A' for Active; 'I' for Inactive)
REMARK    1  A    between atoms: N_5  and  C_6 
REMARK    2  A    between atoms: C_6  and  C_7 
REMARK    3  A    between atoms: C_7  and  O_8 
REMARK    4  A    between atoms: C_7  and  C_9 
ROOT
HETATM    1  C   UNL     1       1.392  -0.004   1.411  1.00  0.00     0.070 C 
HETATM    2  C   UNL     1       2.738   0.007   0.718  1.00  0.00     0.029 A 
HETATM    3  N   UNL     1       3.414  -1.100   0.738  1.00  0.00    -0.300 N 
ATOM      4  HN  UNL     1       3.064  -1.917   1.239  1.00  0.00     0.187 HD
HETATM    5  N   UNL     1       4.612  -1.146   0.069  1.00  0.00    -0.253 N 
HETATM    6  C   UNL     1       5.181  -0.051  -0.563  1.00  0.00     0.283 A 
HETATM    7  O   UNL     1       6.275  -0.092  -1.124  1.00  0.00    -0.265 OA
HETATM    8  C   UNL     1       4.391   1.207  -0.546  1.00  0.00     0.121 A 
HETATM    9  C   UNL     1       4.959   2.334  -1.203  1.00  0.00     0.105 C 
HETATM   10  N   UNL     1       5.367   3.289  -1.721  1.00  0.00    -0.191 NA
HETATM   11  C   UNL     1       3.194   1.266   0.063  1.00  0.00    -0.012 A 
HETATM   12  C   UNL     1       2.311   2.477   0.144  1.00  0.00     0.052 C 
ENDROOT
BRANCH   5  13
HETATM   13  C   UNL     1       5.356  -2.417   0.100  1.00  0.00     0.189 C 
BRANCH  13  14
HETATM   14  C   UNL     1       4.480  -3.690   0.052  1.00  0.00     0.171 C 
BRANCH  14  15
HETATM   15  O   UNL     1       3.772  -3.790   1.298  1.00  0.00    -0.389 OA
HETATM   16  H   UNL     1       3.324  -2.921   1.381  1.00  0.00     0.210 HD
ENDBRANCH  14  15
BRANCH  14  17
HETATM   17  C   UNL     1       3.494  -3.783  -1.105  1.00  0.00    -0.028 A 
HETATM   18  C   UNL     1       3.762  -3.208  -2.358  1.00  0.00     0.011 A 
HETATM   19  C   UNL     1       2.809  -3.243  -3.380  1.00  0.00     0.024 A 
HETATM   20  C   UNL     1       1.588  -3.878  -3.169  1.00  0.00     0.034 A 
HETATM   21 CL   UNL     1       0.397  -3.877  -4.410  1.00  0.00    -0.084 Cl
HETATM   22  C   UNL     1       1.324  -4.508  -1.958  1.00  0.00     0.024 A 
HETATM   23  C   UNL     1       2.277  -4.469  -0.937  1.00  0.00     0.011 A 
ENDBRANCH  14  17
ENDBRANCH  13  14
ENDBRANCH   5  13
TORSDOF 4
