REMARK  5 active torsions:
REMARK  status: ('A' for Active; 'I' for Inactive)
REMARK    1  A    between atoms: C_2  and  O_3 
REMARK    2  A    between atoms: O_3  and  C_4 
REMARK    3  A    between atoms: C_4  and  C_5 
REMARK    4  A    between atoms: C_5  and  N_6 
REMARK    5  A    between atoms: C_7  and  N_19 
ROOT
HETATM    1  N   UNL     1       6.345  -0.785   2.607  1.00  0.00    -0.172 N 
HETATM    2  C   UNL     1       7.104   0.353   2.883  1.00  0.00     0.684 A 
HETATM    3  N   UNL     1       8.392   0.036   2.923  1.00  0.00    -0.174 N 
ATOM      4  HN  UNL     1       9.167   0.647   3.179  1.00  0.00     0.186 HD
HETATM    5  C   UNL     1       8.467  -1.272   2.552  1.00  0.00     0.160 A 
HETATM    6  N   UNL     1       9.608  -2.036   2.384  1.00  0.00    -0.287 N 
HETATM    7  C   UNL     1      10.941  -1.492   2.519  1.00  0.00     0.163 C 
HETATM    8  C   UNL     1       9.479  -3.373   2.022  1.00  0.00     0.330 C 
HETATM    9  O   UNL     1      10.433  -4.128   1.831  1.00  0.00    -0.246 OA
HETATM   10  N   UNL     1       8.201  -3.862   1.856  1.00  0.00    -0.273 N 
HETATM   11  C   UNL     1       7.034  -3.140   1.890  1.00  0.00     0.280 C 
HETATM   12  O   UNL     1       5.956  -3.631   1.564  1.00  0.00    -0.265 OA
HETATM   13  C   UNL     1       7.228  -1.797   2.322  1.00  0.00     0.164 A 
HETATM   14  H   UNL     1       8.129  -4.821   1.559  1.00  0.00     0.173 HD
ENDROOT
BRANCH   2  15
HETATM   15  N   UNL     1       6.600   1.610   3.068  1.00  0.00    -0.217 N 
HETATM   16  C   UNL     1       5.418   2.117   2.392  1.00  0.00     0.141 C 
HETATM   17  C   UNL     1       5.642   3.546   1.912  1.00  0.00     0.024 C 
HETATM   18  C   UNL     1       6.063   4.478   3.051  1.00  0.00    -0.015 C 
HETATM   19  C   UNL     1       4.909   4.758   4.016  1.00  0.00     0.010 C 
HETATM   20  C   UNL     1       7.294   3.889   3.755  1.00  0.00     0.024 C 
HETATM   21  C   UNL     1       7.131   2.420   4.169  1.00  0.00     0.141 C 
ENDBRANCH   2  15
BRANCH   1  22
HETATM   22  C   UNL     1       4.904  -0.965   2.647  1.00  0.00     0.174 C 
BRANCH  22  23
HETATM   23  C   UNL     1       4.409  -1.955   3.700  1.00  0.00     0.188 C 
BRANCH  23  24
HETATM   24  O   UNL     1       4.684  -1.443   5.005  1.00  0.00    -0.390 OA
BRANCH  24  25
HETATM   25  C   UNL     1       4.322  -2.380   6.016  1.00  0.00     0.163 C 
HETATM   26  C   UNL     1       4.728  -1.808   7.359  1.00  0.00     0.033 C 
ENDBRANCH  24  25
ENDBRANCH  23  24
ENDBRANCH  22  23
ENDBRANCH   1  22
TORSDOF 5
