REMARK  6 active torsions:
REMARK  status: ('A' for Active; 'I' for Inactive)
REMARK    1  A    between atoms: N_4  and  C_8 
REMARK    2  A    between atoms: C_11  and  C_12 
REMARK    3  A    between atoms: C_12  and  N_13 
REMARK       I    between atoms: N_13  and  C_14 
REMARK       I    between atoms: C_14  and  N_16 
REMARK    4  A    between atoms: N_16  and  C_17 
REMARK    5  A    between atoms: C_17  and  C_18 
REMARK    6  A    between atoms: C_18  and  O_19 
ROOT
HETATM    1  C   UNL     1       1.810   1.478  -3.339  1.00  0.00     0.103 A 
HETATM    2  C   UNL     1       1.059   0.999  -4.411  1.00  0.00     0.049 A 
HETATM    3  C   UNL     1       0.524   1.875  -5.359  1.00  0.00     0.014 A 
HETATM    4  C   UNL     1       0.743   3.240  -5.235  1.00  0.00    -0.025 A 
HETATM    5  C   UNL     1       1.439   3.653  -4.111  1.00  0.00     0.098 A 
HETATM    6  N   UNL     1       1.959   2.812  -3.183  1.00  0.00    -0.352 N 
ATOM      7  HN  UNL     1       2.458   3.183  -2.375  1.00  0.00     0.166 HD
ENDROOT
BRANCH   4   8
HETATM    8  C   UNL     1       0.314   4.206  -6.294  1.00  0.00     0.164 C 
BRANCH   8   9
HETATM    9  N   UNL     1      -1.072   4.600  -6.196  1.00  0.00    -0.339 N 
HETATM   10  C   UNL     1      -1.541   5.473  -7.146  1.00  0.00     0.316 C 
HETATM   11  O   UNL     1      -0.868   5.886  -8.084  1.00  0.00    -0.247 OA
HETATM   12  N   UNL     1      -2.845   5.812  -6.941  1.00  0.00    -0.341 N 
HETATM   13  H   UNL     1      -3.406   5.176  -6.390  1.00  0.00     0.164 HD
HETATM   14  H   UNL     1      -1.444   4.749  -5.269  1.00  0.00     0.164 HD
BRANCH  12  15
HETATM   15  C   UNL     1      -3.538   6.720  -7.847  1.00  0.00     0.150 C 
BRANCH  15  16
HETATM   16  C   UNL     1      -3.727   6.150  -9.255  1.00  0.00     0.183 C 
BRANCH  16  17
HETATM   17  O   UNL     1      -4.468   4.933  -9.194  1.00  0.00    -0.399 OA
HETATM   18  H   UNL     1      -3.876   4.287  -8.769  1.00  0.00     0.209 HD
ENDBRANCH  16  17
ENDBRANCH  15  16
ENDBRANCH  12  15
ENDBRANCH   8   9
ENDBRANCH   4   8
BRANCH   1  19
HETATM   19  N   UNL     1       2.366   0.641  -2.399  1.00  0.00    -0.363 N 
HETATM   20  C   UNL     1       3.133   1.202  -1.276  1.00  0.00     0.155 C 
HETATM   21  C   UNL     1       2.785   0.414   0.010  1.00  0.00     0.135 C 
HETATM   22  C   UNL     1       1.379   0.744   0.512  1.00  0.00     0.041 C 
HETATM   23  O   UNL     1       2.963  -1.009  -0.160  1.00  0.00    -0.383 OA
HETATM   24  C   UNL     1       2.258  -1.529  -1.299  1.00  0.00     0.188 C 
HETATM   25  C   UNL     1       2.623  -0.788  -2.595  1.00  0.00     0.150 C 
ENDBRANCH   1  19
TORSDOF 6
