REMARK  6 active torsions:
REMARK  status: ('A' for Active; 'I' for Inactive)
REMARK    1  A    between atoms: C_2  and  N_3 
REMARK    2  A    between atoms: C_7  and  C_8 
REMARK    3  A    between atoms: C_8  and  N_9 
REMARK       I    between atoms: N_9  and  C_10 
REMARK    4  A    between atoms: C_10  and  C_12 
REMARK    5  A    between atoms: C_12  and  C_13 
REMARK    6  A    between atoms: C_16  and  C_19 
ROOT
HETATM    1  N   UNL     1       5.274   0.288   0.861  1.00  0.00    -0.359 N 
HETATM    2  C   UNL     1       5.737   0.229   2.158  1.00  0.00     0.223 C 
HETATM    3  O   UNL     1       6.236  -0.785   2.643  1.00  0.00    -0.273 OA
HETATM    4  H   UNL     1       4.865   1.147   0.518  1.00  0.00     0.162 HD
ENDROOT
BRANCH   2   5
HETATM    5  C   UNL     1       5.546   1.510   2.955  1.00  0.00     0.160 C 
BRANCH   5   6
HETATM    6  C   UNL     1       6.833   2.113   3.411  1.00  0.00     0.025 A 
HETATM    7  C   UNL     1       7.777   1.533   4.239  1.00  0.00     0.077 A 
HETATM    8  S   UNL     1       9.046   2.634   4.561  1.00  0.00    -0.086 SA
HETATM    9  C   UNL     1       8.250   3.819   3.600  1.00  0.00     0.054 A 
HETATM   10  N   UNL     1       7.120   3.424   3.046  1.00  0.00    -0.356 N 
ATOM     11  HN  UNL     1       6.539   3.999   2.436  1.00  0.00     0.166 HD
BRANCH   9  12
HETATM   12  C   UNL     1       8.837   5.202   3.461  1.00  0.00     0.035 C 
HETATM   13  C   UNL     1       9.249   5.476   2.015  1.00  0.00     0.016 C 
HETATM   14  C   UNL     1       7.841   6.256   3.947  1.00  0.00     0.016 C 
ENDBRANCH   9  12
ENDBRANCH   5   6
ENDBRANCH   2   5
BRANCH   1  15
HETATM   15  C   UNL     1       5.315  -0.857  -0.037  1.00  0.00     0.158 C 
BRANCH  15  16
HETATM   16  C   UNL     1       4.082  -1.790   0.096  1.00  0.00     0.240 C 
HETATM   17  N   UNL     1       4.013  -2.924  -0.849  1.00  0.00     0.094 N 
HETATM   18  C   UNL     1       3.473  -2.420  -2.114  1.00  0.00     0.273 C 
HETATM   19  C   UNL     1       2.636  -1.203  -1.744  1.00  0.00     0.032 C 
HETATM   20  C   UNL     1       2.771  -1.073  -0.235  1.00  0.00     0.039 C 
BRANCH  17  21
HETATM   21  C   UNL     1       5.254  -3.686  -0.988  1.00  0.00     0.268 C 
HETATM   22  C   UNL     1       5.090  -4.936  -1.845  1.00  0.00     0.037 C 
ENDBRANCH  17  21
ENDBRANCH  15  16
ENDBRANCH   1  15
TORSDOF 6
