REMARK  3 active torsions:
REMARK  status: ('A' for Active; 'I' for Inactive)
REMARK    1  A    between atoms: S_2  and  C_3 
REMARK    2  A    between atoms: C_8  and  N_9 
REMARK       I    between atoms: N_9  and  C_10 
REMARK       I    between atoms: C_10  and  N_12 
REMARK    3  A    between atoms: N_12  and  C_13 
ROOT
HETATM    1  N   UNL     1       2.582  -2.467   1.999  1.00  0.00    -0.337 N 
HETATM    2  C   UNL     1       1.686  -2.444   3.060  1.00  0.00     0.322 C 
HETATM    3  O   UNL     1       1.827  -1.669   3.996  1.00  0.00    -0.247 OA
HETATM    4  N   UNL     1       0.730  -3.426   2.940  1.00  0.00    -0.293 N 
HETATM    5  H   UNL     1       2.179  -2.626   1.089  1.00  0.00     0.164 HD
HETATM    6  H   UNL     1       0.897  -4.159   2.273  1.00  0.00     0.172 HD
ENDROOT
BRANCH   1   7
HETATM    7  C   UNL     1       3.722  -1.549   2.042  1.00  0.00     0.100 C 
HETATM    8  C   UNL     1       3.365  -0.085   1.654  1.00  0.00     0.069 C 
HETATM    9  C   UNL     1       4.617   0.784   1.858  1.00  0.00     0.017 C 
HETATM   10  C   UNL     1       5.830   0.277   1.077  1.00  0.00     0.001 C 
HETATM   11  C   UNL     1       6.135  -1.186   1.388  1.00  0.00     0.002 C 
HETATM   12  C   UNL     1       4.912  -2.091   1.235  1.00  0.00     0.026 C 
BRANCH   8  13
HETATM   13  S   UNL     1       2.699   0.004  -0.077  1.00  0.00    -0.167 SA
HETATM   14  C   UNL     1       2.367   1.782  -0.208  1.00  0.00     0.090 C 
ENDBRANCH   8  13
ENDBRANCH   1   7
BRANCH   4  15
HETATM   15  C   UNL     1      -0.238  -3.651   3.908  1.00  0.00     0.132 A 
HETATM   16  C   UNL     1      -1.025  -4.826   4.004  1.00  0.00     0.084 A 
HETATM   17  C   UNL     1      -1.773  -4.650   5.145  1.00  0.00     0.076 A 
HETATM   18  C   UNL     1      -2.736  -5.468   5.901  1.00  0.00     0.079 C 
HETATM   19  O   UNL     1      -1.507  -3.426   5.662  1.00  0.00    -0.241 OA
HETATM   20  N   UNL     1      -0.558  -2.800   4.888  1.00  0.00    -0.245 N 
ATOM     21  HN  UNL     1      -0.173  -1.867   5.034  1.00  0.00     0.196 HD
ENDBRANCH   4  15
TORSDOF 3
