REMARK  5 active torsions:
REMARK  status: ('A' for Active; 'I' for Inactive)
REMARK    1  A    between atoms: C_2  and  N_3 
REMARK    2  A    between atoms: C_2  and  C_12 
REMARK    3  A    between atoms: N_3  and  C_4 
REMARK    4  A    between atoms: C_4  and  C_5 
REMARK    5  A    between atoms: C_5  and  N_6 
REMARK       I    between atoms: C_12  and  N_14 
ROOT
HETATM    1  C   UNL     1       0.886   0.040  -0.168  1.00  0.00     0.053 C 
HETATM    2  C   UNL     1       2.415  -0.066  -0.145  1.00  0.00     0.307 C 
ENDROOT
BRANCH   2   3
HETATM    3  N   UNL     1       2.908  -1.403   0.281  1.00  0.00     0.098 N 
HETATM    4  H   UNL     1       2.532  -1.585   1.213  1.00  0.00     0.317 HD
BRANCH   3   5
HETATM    5  C   UNL     1       2.486  -2.505  -0.600  1.00  0.00     0.292 C 
BRANCH   5   6
HETATM    6  C   UNL     1       3.016  -3.854  -0.096  1.00  0.00     0.178 C 
BRANCH   6   7
HETATM    7  N   UNL     1       2.581  -4.951  -0.942  1.00  0.00    -0.302 N 
HETATM    8  C   UNL     1       3.240  -5.460  -2.026  1.00  0.00     0.111 A 
HETATM    9  C   UNL     1       2.456  -6.483  -2.504  1.00  0.00     0.037 A 
HETATM   10  C   UNL     1       1.350  -6.519  -1.634  1.00  0.00     0.108 A 
HETATM   11  N   UNL     1       1.422  -5.588  -0.678  1.00  0.00    -0.310 N 
ATOM     12  HN  UNL     1       0.758  -5.403   0.073  1.00  0.00     0.186 HD
ENDBRANCH   6   7
ENDBRANCH   5   6
ENDBRANCH   3   5
ENDBRANCH   2   3
BRANCH   2  13
HETATM   13  C   UNL     1       3.001   0.388  -1.506  1.00  0.00     0.252 C 
HETATM   14  O   UNL     1       2.361   0.206  -2.547  1.00  0.00    -0.271 OA
HETATM   15  N   UNL     1       4.230   1.056  -1.511  1.00  0.00    -0.350 N 
HETATM   16  C   UNL     1       4.614   1.798  -2.715  1.00  0.00     0.126 C 
HETATM   17  C   UNL     1       5.188   1.036  -0.410  1.00  0.00     0.126 C 
HETATM   18  C   UNL     1       4.425   3.302  -2.516  1.00  0.00     0.020 C 
HETATM   19  C   UNL     1       5.598   4.021  -1.849  1.00  0.00     0.002 C 
HETATM   20  C   UNL     1       6.358   3.267  -0.760  1.00  0.00     0.002 C 
HETATM   21  C   UNL     1       5.492   2.419   0.169  1.00  0.00     0.020 C 
ENDBRANCH   2  13
TORSDOF 5
