REMARK  7 active torsions:
REMARK  status: ('A' for Active; 'I' for Inactive)
REMARK    1  A    between atoms: S_2  and  N_5 
REMARK    2  A    between atoms: N_5  and  C_6 
REMARK    3  A    between atoms: C_6  and  C_7 
REMARK    4  A    between atoms: C_7  and  C_8 
REMARK       I    between atoms: C_8  and  N_10 
REMARK    5  A    between atoms: N_10  and  C_11 
REMARK    6  A    between atoms: C_11  and  C_12 
REMARK    7  A    between atoms: C_18  and  N_19 
ROOT
HETATM    1  C   UNL     1       9.505   5.456  -1.479  1.00  0.00     0.004 A 
HETATM    2  C   UNL     1       8.735   6.612  -1.262  1.00  0.00     0.014 A 
HETATM    3  C   UNL     1       9.263   7.865  -1.531  1.00  0.00     0.018 A 
HETATM    4  C   UNL     1      10.564   7.928  -1.981  1.00  0.00     0.089 A 
HETATM    5  N   UNL     1      11.340   6.843  -2.187  1.00  0.00    -0.352 N 
ATOM      6  HN  UNL     1      12.296   6.947  -2.527  1.00  0.00     0.166 HD
HETATM    7  C   UNL     1      10.829   5.615  -1.935  1.00  0.00     0.111 A 
ENDROOT
BRANCH   1   8
HETATM    8  C   UNL     1       8.930   4.091  -1.198  1.00  0.00     0.165 C 
BRANCH   8   9
HETATM    9  N   UNL     1       7.494   3.995  -1.384  1.00  0.00    -0.357 N 
HETATM   10  C   UNL     1       6.780   3.031  -0.706  1.00  0.00     0.218 C 
HETATM   11  O   UNL     1       7.272   2.294   0.141  1.00  0.00    -0.274 OA
HETATM   12  H   UNL     1       7.124   4.351  -2.256  1.00  0.00     0.162 HD
BRANCH  10  13
HETATM   13  C   UNL     1       5.301   3.033  -0.992  1.00  0.00     0.118 C 
BRANCH  13  14
HETATM   14  C   UNL     1       4.651   4.080  -0.102  1.00  0.00     0.113 C 
BRANCH  14  15
HETATM   15  N   UNL     1       3.184   4.044  -0.249  1.00  0.00    -0.220 NA
HETATM   16  H   UNL     1       2.831   4.062  -1.211  1.00  0.00     0.139 HD
BRANCH  15  17
HETATM   17  S   UNL     1       2.310   5.152   0.676  1.00  0.00     0.205 S 
HETATM   18  C   UNL     1       2.472   4.498   2.326  1.00  0.00     0.179 C 
HETATM   19  O   UNL     1       0.935   5.016   0.253  1.00  0.00    -0.212 OA
HETATM   20  O   UNL     1       3.001   6.419   0.594  1.00  0.00    -0.212 OA
ENDBRANCH  15  17
ENDBRANCH  14  15
ENDBRANCH  13  14
ENDBRANCH  10  13
ENDBRANCH   8   9
ENDBRANCH   1   8
BRANCH   7  21
HETATM   21  N   UNL     1      11.596   4.511  -2.279  1.00  0.00    -0.363 N 
HETATM   22  C   UNL     1      12.660   4.738  -3.274  1.00  0.00     0.150 C 
HETATM   23  C   UNL     1      12.983   3.372  -3.906  1.00  0.00     0.187 C 
HETATM   24  O   UNL     1      13.387   2.404  -2.917  1.00  0.00    -0.388 OA
HETATM   25  C   UNL     1      12.383   2.258  -1.893  1.00  0.00     0.187 C 
HETATM   26  C   UNL     1      12.075   3.608  -1.217  1.00  0.00     0.150 C 
ENDBRANCH   7  21
TORSDOF 7
