REMARK  5 active torsions:
REMARK  status: ('A' for Active; 'I' for Inactive)
REMARK       I    between atoms: C_2  and  N_3 
REMARK       I    between atoms: C_2  and  N_12 
REMARK    1  A    between atoms: N_3  and  C_4 
REMARK    2  A    between atoms: C_4  and  C_5 
REMARK    3  A    between atoms: C_5  and  N_6 
REMARK    4  A    between atoms: N_12  and  C_13 
REMARK    5  A    between atoms: C_19  and  N_20 
ROOT
HETATM    1  O   UNL     1       1.163   0.241   0.458  1.00  0.00    -0.247 OA
HETATM    2  C   UNL     1       2.363   0.185   0.226  1.00  0.00     0.320 C 
HETATM    3  N   UNL     1       3.018   1.094  -0.584  1.00  0.00    -0.341 N 
HETATM    4  N   UNL     1       3.234  -0.756   0.727  1.00  0.00    -0.306 N 
HETATM    5  H   UNL     1       3.888   0.796  -0.994  1.00  0.00     0.164 HD
HETATM    6  H   UNL     1       4.003  -0.952   0.121  1.00  0.00     0.171 HD
ENDROOT
BRANCH   4   7
HETATM    7  C   UNL     1       2.755  -1.853   1.480  1.00  0.00     0.080 A 
HETATM    8  C   UNL     1       2.104  -1.570   2.690  1.00  0.00     0.035 A 
HETATM    9  C   UNL     1       1.654  -2.603   3.495  1.00  0.00     0.019 A 
HETATM   10  C   UNL     1       1.853  -3.887   3.039  1.00  0.00     0.090 A 
HETATM   11  N   UNL     1       2.442  -4.189   1.863  1.00  0.00    -0.351 N 
HETATM   12  C   UNL     1       2.908  -3.193   1.060  1.00  0.00     0.130 A 
ATOM     13  HN  UNL     1       2.538  -5.163   1.576  1.00  0.00     0.166 HD
BRANCH  12  14
HETATM   14  N   UNL     1       3.418  -3.579  -0.161  1.00  0.00    -0.365 N 
HETATM   15  C   UNL     1       4.482  -2.950  -0.916  1.00  0.00     0.124 C 
HETATM   16  C   UNL     1       4.942  -3.992  -1.933  1.00  0.00     0.021 C 
HETATM   17  C   UNL     1       4.346  -5.303  -1.457  1.00  0.00     0.021 C 
HETATM   18  C   UNL     1       3.090  -4.894  -0.702  1.00  0.00     0.124 C 
ENDBRANCH  12  14
ENDBRANCH   4   7
BRANCH   3  19
HETATM   19  C   UNL     1       2.260   2.082  -1.334  1.00  0.00     0.154 C 
BRANCH  19  20
HETATM   20  C   UNL     1       1.514   3.097  -0.442  1.00  0.00     0.292 C 
BRANCH  20  21
HETATM   21  N   UNL     1       0.747   4.119  -1.184  1.00  0.00     0.094 N 
HETATM   22  C   UNL     1       0.040   5.018  -0.236  1.00  0.00     0.298 C 
HETATM   23  C   UNL     1      -1.200   4.398   0.444  1.00  0.00     0.198 C 
HETATM   24  O   UNL     1      -2.112   3.832  -0.508  1.00  0.00    -0.388 OA
HETATM   25  C   UNL     1      -1.445   2.873  -1.338  1.00  0.00     0.198 C 
HETATM   26  C   UNL     1      -0.279   3.539  -2.083  1.00  0.00     0.298 C 
ENDBRANCH  20  21
ENDBRANCH  19  20
ENDBRANCH   3  19
TORSDOF 5
