REMARK  5 active torsions:
REMARK  status: ('A' for Active; 'I' for Inactive)
REMARK    1  A    between atoms: C_2  and  N_3 
REMARK    2  A    between atoms: C_2  and  C_15 
REMARK    3  A    between atoms: N_3  and  C_4 
REMARK    4  A    between atoms: C_4  and  C_5 
REMARK       I    between atoms: C_5  and  N_7 
REMARK    5  A    between atoms: C_15  and  N_17 
ROOT
HETATM    1  N   UNL     1       2.796   0.051   1.404  1.00  0.00     0.098 N 
HETATM    2  H   UNL     1       3.809   0.019   1.279  1.00  0.00     0.317 HD
ENDROOT
BRANCH   1   3
HETATM    3  C   UNL     1       2.075  -0.193   0.142  1.00  0.00     0.241 C 
HETATM    4  C   UNL     1       2.441   0.875  -0.900  1.00  0.00     0.045 C 
BRANCH   3   5
HETATM    5  C   UNL     1       0.529  -0.354   0.319  1.00  0.00     0.136 C 
HETATM    6  C   UNL     1      -0.204  -0.668  -0.989  1.00  0.00     0.036 C 
BRANCH   5   7
HETATM    7  N   UNL     1       0.179  -1.359   1.327  1.00  0.00    -0.297 N 
HETATM    8  C   UNL     1       0.493  -2.691   1.319  1.00  0.00     0.112 A 
HETATM    9  C   UNL     1      -0.077  -3.226   2.451  1.00  0.00     0.037 A 
HETATM   10  C   UNL     1      -0.739  -2.145   3.057  1.00  0.00     0.108 A 
HETATM   11  N   UNL     1      -0.620  -1.014   2.357  1.00  0.00    -0.310 N 
ATOM     12  HN  UNL     1      -1.036  -0.104   2.555  1.00  0.00     0.186 HD
ENDBRANCH   5   7
ENDBRANCH   3   5
ENDBRANCH   1   3
BRANCH   1  13
HETATM   13  C   UNL     1       2.432   1.301   2.090  1.00  0.00     0.372 C 
BRANCH  13  14
HETATM   14  C   UNL     1       3.301   1.544   3.332  1.00  0.00     0.248 C 
HETATM   15  O   UNL     1       4.167   0.743   3.693  1.00  0.00    -0.271 OA
HETATM   16  N   UNL     1       3.104   2.756   3.984  1.00  0.00    -0.346 N 
HETATM   17  C   UNL     1       2.169   3.818   3.589  1.00  0.00     0.157 C 
HETATM   18  C   UNL     1       4.040   3.169   5.027  1.00  0.00     0.157 C 
HETATM   19  C   UNL     1       2.941   5.101   3.213  1.00  0.00     0.136 C 
HETATM   20  C   UNL     1       1.984   6.265   2.992  1.00  0.00     0.041 C 
HETATM   21  O   UNL     1       3.856   5.482   4.260  1.00  0.00    -0.378 OA
HETATM   22  C   UNL     1       4.793   4.423   4.550  1.00  0.00     0.136 C 
HETATM   23  C   UNL     1       5.758   4.922   5.612  1.00  0.00     0.041 C 
ENDBRANCH  13  14
ENDBRANCH   1  13
TORSDOF 5
