REMARK  3 active torsions:
REMARK  status: ('A' for Active; 'I' for Inactive)
REMARK    1  A    between atoms: C_2  and  C_4 
REMARK       I    between atoms: N_10  and  C_11 
REMARK       I    between atoms: C_11  and  N_13 
REMARK    2  A    between atoms: N_13  and  C_14 
REMARK    3  A    between atoms: C_14  and  C_15 
ROOT
HETATM    1  C   UNL     1       1.665   6.701   0.013  1.00  0.00     0.073 A 
HETATM    2  N   UNL     1       1.764   7.465   1.082  1.00  0.00    -0.296 N 
ATOM      3  HN  UNL     1       1.399   8.416   1.139  1.00  0.00     0.187 HD
HETATM    4  N   UNL     1       2.416   6.830   2.109  1.00  0.00    -0.279 N 
ATOM      5  HN  UNL     1       2.594   7.253   3.020  1.00  0.00     0.189 HD
HETATM    6  C   UNL     1       2.783   5.613   1.780  1.00  0.00     0.169 A 
HETATM    7  N   UNL     1       3.522   4.734   2.518  1.00  0.00    -0.288 N 
HETATM    8  C   UNL     1       4.193   5.068   3.660  1.00  0.00     0.322 C 
HETATM    9  O   UNL     1       4.898   4.233   4.223  1.00  0.00    -0.247 OA
HETATM   10  N   UNL     1       4.087   6.360   4.082  1.00  0.00    -0.342 N 
HETATM   11  S   UNL     1       2.307   5.112   0.224  1.00  0.00    -0.037 SA
HETATM   12  H   UNL     1       3.689   3.807   2.157  1.00  0.00     0.172 HD
HETATM   13  H   UNL     1       3.305   6.898   3.715  1.00  0.00     0.164 HD
ENDROOT
BRANCH  10  14
HETATM   14  C   UNL     1       4.804   6.890   5.214  1.00  0.00     0.131 C 
BRANCH  14  15
HETATM   15  C   UNL     1       4.576   8.389   5.374  1.00  0.00     0.029 C 
HETATM   16  C   UNL     1       5.102   9.254   4.242  1.00  0.00     0.034 C 
HETATM   17  C   UNL     1       5.461  10.566   4.922  1.00  0.00     0.168 C 
HETATM   18  O   UNL     1       5.391  10.360   6.339  1.00  0.00    -0.391 OA
HETATM   19  C   UNL     1       5.309   8.953   6.572  1.00  0.00     0.173 C 
ENDBRANCH  14  15
ENDBRANCH  10  14
BRANCH   1  20
HETATM   20  C   UNL     1       1.066   7.152  -1.286  1.00  0.00     0.036 C 
HETATM   21  C   UNL     1      -0.400   7.532  -1.083  1.00  0.00     0.016 C 
HETATM   22  C   UNL     1       1.853   8.343  -1.840  1.00  0.00     0.016 C 
ENDBRANCH   1  20
TORSDOF 3
