REMARK  4 active torsions:
REMARK  status: ('A' for Active; 'I' for Inactive)
REMARK    1  A    between atoms: O_2  and  C_3 
REMARK    2  A    between atoms: C_9  and  N_10 
REMARK       I    between atoms: N_10  and  C_11 
REMARK       I    between atoms: C_11  and  N_13 
REMARK    3  A    between atoms: N_13  and  C_14 
REMARK    4  A    between atoms: N_17  and  S_20 
ROOT
HETATM    1  N   UNL     1       1.808  -4.306  -1.154  1.00  0.00    -0.305 N 
HETATM    2  C   UNL     1       1.601  -3.853  -2.439  1.00  0.00     0.321 C 
HETATM    3  O   UNL     1       0.985  -4.469  -3.305  1.00  0.00    -0.247 OA
HETATM    4  N   UNL     1       2.129  -2.597  -2.656  1.00  0.00    -0.338 N 
HETATM    5  H   UNL     1       1.708  -3.608  -0.426  1.00  0.00     0.171 HD
HETATM    6  H   UNL     1       2.813  -2.246  -2.000  1.00  0.00     0.164 HD
ENDROOT
BRANCH   1   7
HETATM    7  C   UNL     1       1.464  -5.626  -0.753  1.00  0.00     0.087 A 
HETATM    8  C   UNL     1       0.917  -5.875   0.511  1.00  0.00     0.169 A 
HETATM    9  N   UNL     1       0.587  -7.110   0.964  1.00  0.00    -0.345 N 
HETATM   10  C   UNL     1       0.815  -8.145   0.131  1.00  0.00     0.090 A 
ATOM     11  HN  UNL     1       0.185  -7.249   1.891  1.00  0.00     0.167 HD
HETATM   12  C   UNL     1       1.367  -8.009  -1.130  1.00  0.00     0.019 A 
HETATM   13  C   UNL     1       1.694  -6.730  -1.577  1.00  0.00     0.035 A 
BRANCH   8  14
HETATM   14  O   UNL     1       0.644  -4.774   1.309  1.00  0.00    -0.339 OA
HETATM   15  C   UNL     1       0.213  -5.142   2.619  1.00  0.00     0.211 C 
ENDBRANCH   8  14
ENDBRANCH   1   7
BRANCH   4  16
HETATM   16  C   UNL     1       1.833  -1.871  -3.896  1.00  0.00     0.089 C 
HETATM   17  C   UNL     1       2.987  -0.994  -4.403  1.00  0.00     0.045 C 
HETATM   18  C   UNL     1       3.117   0.361  -3.711  1.00  0.00     0.137 C 
HETATM   19  N   UNL     1       1.809   1.038  -3.555  1.00  0.00    -0.311 N 
HETATM   20  C   UNL     1       0.779   0.192  -2.919  1.00  0.00     0.137 C 
HETATM   21  C   UNL     1       0.542  -1.058  -3.751  1.00  0.00     0.045 C 
BRANCH  19  22
HETATM   22  S   UNL     1       1.306   2.140  -4.736  1.00  0.00     0.224 S 
HETATM   23  O   UNL     1       1.869   1.720  -6.002  1.00  0.00    -0.206 OA
HETATM   24  O   UNL     1      -0.112   2.381  -4.585  1.00  0.00    -0.206 OA
HETATM   25  C   UNL     1       2.149   3.618  -4.210  1.00  0.00     0.186 C 
ENDBRANCH  19  22
ENDBRANCH   4  16
TORSDOF 4
