REMARK  5 active torsions:
REMARK  status: ('A' for Active; 'I' for Inactive)
REMARK    1  A    between atoms: C_2  and  N_4 
REMARK    2  A    between atoms: C_8  and  N_10 
REMARK    3  A    between atoms: N_10  and  S_11 
REMARK    4  A    between atoms: S_11  and  C_14 
REMARK    5  A    between atoms: C_14  and  C_15 
ROOT
HETATM    1  N   UNL     1       3.341  -1.942   4.051  1.00  0.00    -0.213 NA
HETATM    2  H   UNL     1       4.203  -1.657   3.572  1.00  0.00     0.140 HD
ENDROOT
BRANCH   1   3
HETATM    3  C   UNL     1       2.199  -2.067   3.107  1.00  0.00     0.105 C 
HETATM    4  C   UNL     1       2.476  -3.084   1.989  1.00  0.00     0.030 C 
HETATM    5  C   UNL     1       2.978  -2.266   0.797  1.00  0.00     0.279 C 
HETATM    6  C   UNL     1       3.378  -4.274   2.284  1.00  0.00     0.013 C 
HETATM    7  N   UNL     1       2.822  -0.849   1.143  1.00  0.00     0.094 N 
HETATM    8  C   UNL     1       1.914  -0.794   2.301  1.00  0.00     0.293 C 
BRANCH   7   9
HETATM    9  C   UNL     1       2.356  -0.025   0.007  1.00  0.00     0.215 C 
HETATM   10  C   UNL     1       2.217   1.458   0.378  1.00  0.00     0.042 C 
HETATM   11  C   UNL     1       3.311  -0.130  -1.193  1.00  0.00     0.042 C 
ENDBRANCH   7   9
ENDBRANCH   1   3
BRANCH   1  12
HETATM   12  S   UNL     1       3.169  -1.000   5.453  1.00  0.00     0.215 S 
HETATM   13  O   UNL     1       4.412  -1.168   6.175  1.00  0.00    -0.211 OA
HETATM   14  O   UNL     1       2.749   0.320   5.037  1.00  0.00    -0.211 OA
BRANCH  12  15
HETATM   15  C   UNL     1       1.851  -1.794   6.387  1.00  0.00     0.216 C 
BRANCH  15  16
HETATM   16  C   UNL     1       1.436  -0.961   7.547  1.00  0.00     0.049 A 
HETATM   17  C   UNL     1       2.198  -0.520   8.655  1.00  0.00     0.054 A 
HETATM   18  C   UNL     1       1.322   0.229   9.394  1.00  0.00     0.169 A 
HETATM   19  O   UNL     1       0.105   0.220   8.800  1.00  0.00    -0.250 OA
HETATM   20  N   UNL     1       0.164  -0.541   7.646  1.00  0.00    -0.265 N 
ATOM     21  HN  UNL     1      -0.601  -0.742   7.002  1.00  0.00     0.194 HD
ENDBRANCH  15  16
ENDBRANCH  12  15
ENDBRANCH   1  12
TORSDOF 5
