REMARK  8 active torsions:
REMARK  status: ('A' for Active; 'I' for Inactive)
REMARK    1  A    between atoms: O_1  and  C_2 
REMARK    2  A    between atoms: C_2  and  C_3 
REMARK    3  A    between atoms: C_2  and  C_13 
REMARK    4  A    between atoms: C_3  and  N_4 
REMARK    5  A    between atoms: N_4  and  C_5 
REMARK    6  A    between atoms: C_5  and  C_6 
REMARK    7  A    between atoms: C_6  and  N_7 
REMARK    8  A    between atoms: C_13  and  N_14 
ROOT
HETATM    1  C   UNL     1       2.132   0.442  -1.459  1.00  0.00     0.302 C 
ENDROOT
BRANCH   1   2
HETATM    2  C   UNL     1       2.112  -0.008   0.021  1.00  0.00     0.174 C 
BRANCH   2   3
HETATM    3  O   UNL     1       0.725  -0.063   0.394  1.00  0.00    -0.392 OA
HETATM    4  H   UNL     1       0.312  -0.768  -0.133  1.00  0.00     0.210 HD
ENDBRANCH   2   3
BRANCH   2   5
HETATM    5  C   UNL     1       2.881   0.982   0.938  1.00  0.00     0.305 C 
BRANCH   5   6
HETATM    6  N   UNL     1       3.017   0.556   2.354  1.00  0.00     0.095 N 
HETATM    7  C   UNL     1       1.756   0.647   3.129  1.00  0.00     0.298 C 
HETATM    8  C   UNL     1       1.318   2.083   3.472  1.00  0.00     0.198 C 
HETATM    9  O   UNL     1       2.351   2.790   4.171  1.00  0.00    -0.388 OA
HETATM   10  C   UNL     1       3.563   2.801   3.409  1.00  0.00     0.198 C 
HETATM   11  C   UNL     1       4.028   1.374   3.066  1.00  0.00     0.298 C 
ENDBRANCH   5   6
ENDBRANCH   2   5
ENDBRANCH   1   2
BRANCH   1  12
HETATM   12  N   UNL     1       3.452   0.522  -2.097  1.00  0.00     0.087 N 
HETATM   13  H   UNL     1       3.890  -0.402  -2.072  1.00  0.00     0.316 HD
BRANCH  12  14
HETATM   14  C   UNL     1       3.336   0.946  -3.513  1.00  0.00     0.291 C 
BRANCH  14  15
HETATM   15  C   UNL     1       2.762   2.355  -3.693  1.00  0.00     0.178 C 
BRANCH  15  16
HETATM   16  N   UNL     1       2.642   2.761  -5.080  1.00  0.00    -0.302 N 
HETATM   17  C   UNL     1       3.193   3.871  -5.653  1.00  0.00     0.111 A 
HETATM   18  C   UNL     1       2.652   3.956  -6.914  1.00  0.00     0.037 A 
HETATM   19  C   UNL     1       1.792   2.848  -7.008  1.00  0.00     0.108 A 
HETATM   20  N   UNL     1       1.785   2.113  -5.894  1.00  0.00    -0.310 N 
ATOM     21  HN  UNL     1       1.256   1.262  -5.704  1.00  0.00     0.186 HD
ENDBRANCH  15  16
ENDBRANCH  14  15
ENDBRANCH  12  14
ENDBRANCH   1  12
TORSDOF 8
