REMARK  7 active torsions:
REMARK  status: ('A' for Active; 'I' for Inactive)
REMARK    1  A    between atoms: C_6  and  N_7 
REMARK    2  A    between atoms: N_7  and  C_8 
REMARK    3  A    between atoms: C_8  and  C_9 
REMARK    4  A    between atoms: C_9  and  O_10 
REMARK    5  A    between atoms: O_10  and  C_11 
REMARK    6  A    between atoms: C_11  and  C_12 
REMARK    7  A    between atoms: C_12  and  O_13 
ROOT
HETATM    1  C   UNL     1       1.146   0.019   0.076  1.00  0.00     0.052 C 
HETATM    2  C   UNL     1       2.638   0.054   0.039  1.00  0.00    -0.024 A 
HETATM    3  C   UNL     1       3.379  -1.038  -0.364  1.00  0.00     0.099 A 
HETATM    4  N   UNL     1       4.723  -1.049  -0.455  1.00  0.00    -0.342 N 
ATOM      5  HN  UNL     1       5.233  -1.880  -0.755  1.00  0.00     0.167 HD
HETATM    6  C   UNL     1       5.356   0.084  -0.132  1.00  0.00     0.157 A 
HETATM    7  N   UNL     1       4.734   1.187   0.302  1.00  0.00    -0.336 N 
ATOM      8  HN  UNL     1       5.263   2.019   0.564  1.00  0.00     0.168 HD
HETATM    9  C   UNL     1       3.385   1.167   0.383  1.00  0.00     0.015 A 
HETATM   10  C   UNL     1       2.738   2.439   0.851  1.00  0.00     0.069 C 
ENDROOT
BRANCH   6  11
HETATM   11  N   UNL     1       6.729   0.191  -0.270  1.00  0.00    -0.262 NA
HETATM   12  H   UNL     1       7.014   0.984   0.299  1.00  0.00     0.130 HD
BRANCH  11  13
HETATM   13  C   UNL     1       7.487  -1.022  -0.015  1.00  0.00     0.121 C 
BRANCH  13  14
HETATM   14  C   UNL     1       8.986  -0.720  -0.150  1.00  0.00     0.182 C 
BRANCH  14  15
HETATM   15  O   UNL     1       9.394   0.214   0.863  1.00  0.00    -0.388 OA
BRANCH  15  16
HETATM   16  C   UNL     1      10.789   0.526   0.740  1.00  0.00     0.193 C 
BRANCH  16  17
HETATM   17  C   UNL     1      11.161   1.558   1.800  1.00  0.00     0.190 C 
BRANCH  17  18
HETATM   18  O   UNL     1      10.920   1.031   3.103  1.00  0.00    -0.399 OA
HETATM   19  H   UNL     1       9.996   0.718   3.086  1.00  0.00     0.209 HD
ENDBRANCH  17  18
ENDBRANCH  16  17
ENDBRANCH  15  16
ENDBRANCH  14  15
ENDBRANCH  13  14
ENDBRANCH  11  13
ENDBRANCH   6  11
TORSDOF 7
