REMARK  8 active torsions:
REMARK  status: ('A' for Active; 'I' for Inactive)
REMARK    1  A    between atoms: C_2  and  C_3 
REMARK    2  A    between atoms: C_3  and  N_4 
REMARK    3  A    between atoms: C_5  and  N_6 
REMARK    4  A    between atoms: C_7  and  N_8 
REMARK    5  A    between atoms: N_8  and  C_9 
REMARK       I    between atoms: N_8  and  C_13 
REMARK    6  A    between atoms: C_9  and  C_10 
REMARK    7  A    between atoms: C_10  and  O_11 
REMARK    8  A    between atoms: C_13  and  C_15 
ROOT
HETATM    1  N   UNL     1       5.037  -0.604  -0.054  1.00  0.00    -0.288 N 
HETATM    2  C   UNL     1       5.901   0.291  -0.695  1.00  0.00     0.117 C 
HETATM    3  C   UNL     1       6.387  -0.014  -1.931  1.00  0.00     0.144 C 
HETATM    4  C   UNL     1       6.112  -1.372  -2.492  1.00  0.00     0.279 C 
HETATM    5  O   UNL     1       6.393  -1.673  -3.646  1.00  0.00    -0.265 OA
HETATM    6  N   UNL     1       5.471  -2.237  -1.669  1.00  0.00    -0.273 N 
HETATM    7  C   UNL     1       4.764  -1.868  -0.567  1.00  0.00     0.330 C 
HETATM    8  O   UNL     1       3.923  -2.638  -0.103  1.00  0.00    -0.246 OA
HETATM    9  H   UNL     1       5.239  -3.133  -2.061  1.00  0.00     0.173 HD
ENDROOT
BRANCH   3  10
HETATM   10  N   UNL     1       7.151   0.886  -2.673  1.00  0.00    -0.308 N 
HETATM   11  C   UNL     1       6.672   1.749  -3.673  1.00  0.00     0.232 C 
HETATM   12  O   UNL     1       7.499   2.454  -4.277  1.00  0.00    -0.272 OA
BRANCH  10  13
HETATM   13  C   UNL     1       8.624   0.753  -2.675  1.00  0.00     0.158 C 
BRANCH  13  14
HETATM   14  C   UNL     1       9.350  -0.052  -1.593  1.00  0.00     0.187 C 
BRANCH  14  15
HETATM   15  O   UNL     1       9.193  -1.458  -1.785  1.00  0.00    -0.394 OA
HETATM   16  C   UNL     1      10.071  -2.190  -0.936  1.00  0.00     0.201 C 
ENDBRANCH  14  15
ENDBRANCH  13  14
ENDBRANCH  10  13
BRANCH  11  17
HETATM   17  C   UNL     1       5.177   1.869  -4.113  1.00  0.00     0.030 C 
HETATM   18  C   UNL     1       4.154   1.932  -2.979  1.00  0.00     0.025 C 
HETATM   19  C   UNL     1       5.038   3.208  -4.896  1.00  0.00     0.025 C 
HETATM   20  C   UNL     1       4.799   0.759  -5.104  1.00  0.00     0.025 C 
ENDBRANCH  11  17
ENDBRANCH   3  10
BRANCH   2  21
HETATM   21  N   UNL     1       6.225   1.508  -0.105  1.00  0.00    -0.286 NA
HETATM   22  H   UNL     1       5.464   1.929   0.416  1.00  0.00     0.125 HD
HETATM   23  H   UNL     1       6.649   2.162  -0.761  1.00  0.00     0.125 HD
ENDBRANCH   2  21
BRANCH   1  24
HETATM   24  C   UNL     1       4.305  -0.228   1.165  1.00  0.00     0.135 C 
BRANCH  24  25
HETATM   25  C   UNL     1       3.001   0.522   0.858  1.00  0.00     0.016 C 
HETATM   26  C   UNL     1       2.229   0.851   2.129  1.00  0.00     0.006 C 
ENDBRANCH  24  25
ENDBRANCH   1  24
TORSDOF 8
