REMARK  4 active torsions:
REMARK  status: ('A' for Active; 'I' for Inactive)
REMARK    1  A    between atoms: C_2  and  C_3 
REMARK    2  A    between atoms: C_2  and  N_10 
REMARK    3  A    between atoms: C_3  and  N_4 
REMARK       I    between atoms: N_10  and  C_11 
REMARK       I    between atoms: C_11  and  N_13 
REMARK    4  A    between atoms: N_13  and  C_14 
ROOT
HETATM    1  N   UNL     1       3.254  -0.278  -1.649  1.00  0.00    -0.337 N 
HETATM    2  C   UNL     1       4.615  -0.070  -1.689  1.00  0.00     0.322 C 
HETATM    3  O   UNL     1       5.265   0.353  -0.745  1.00  0.00    -0.247 OA
HETATM    4  N   UNL     1       5.095  -0.434  -2.920  1.00  0.00    -0.293 N 
HETATM    5  H   UNL     1       2.786  -0.020  -2.504  1.00  0.00     0.164 HD
HETATM    6  H   UNL     1       4.609  -1.198  -3.365  1.00  0.00     0.172 HD
ENDROOT
BRANCH   1   7
HETATM    7  C   UNL     1       2.475  -0.187  -0.413  1.00  0.00     0.110 C 
HETATM    8  C   UNL     1       0.992  -0.126  -0.775  1.00  0.00     0.034 C 
BRANCH   7   9
HETATM    9  C   UNL     1       2.830  -1.302   0.621  1.00  0.00     0.297 C 
BRANCH   9  10
HETATM   10  N   UNL     1       2.846  -2.716   0.168  1.00  0.00     0.094 N 
HETATM   11  C   UNL     1       1.518  -3.303  -0.087  1.00  0.00     0.298 C 
HETATM   12  C   UNL     1       0.684  -3.504   1.188  1.00  0.00     0.198 C 
HETATM   13  O   UNL     1       1.351  -4.389   2.089  1.00  0.00    -0.388 OA
HETATM   14  C   UNL     1       2.657  -3.901   2.420  1.00  0.00     0.198 C 
HETATM   15  C   UNL     1       3.510  -3.592   1.171  1.00  0.00     0.298 C 
ENDBRANCH   9  10
ENDBRANCH   7   9
ENDBRANCH   1   7
BRANCH   4  16
HETATM   16  C   UNL     1       6.412  -0.326  -3.292  1.00  0.00     0.132 A 
HETATM   17  C   UNL     1       7.361   0.646  -2.914  1.00  0.00     0.084 A 
HETATM   18  C   UNL     1       8.512   0.259  -3.552  1.00  0.00     0.076 A 
HETATM   19  C   UNL     1       9.889   0.778  -3.608  1.00  0.00     0.079 C 
HETATM   20  O   UNL     1       8.263  -0.860  -4.283  1.00  0.00    -0.241 OA
HETATM   21  N   UNL     1       6.930  -1.200  -4.160  1.00  0.00    -0.245 N 
ATOM     22  HN  UNL     1       6.442  -1.960  -4.633  1.00  0.00     0.196 HD
ENDBRANCH   4  16
TORSDOF 4
