REMARK  1 active torsions:
REMARK  status: ('A' for Active; 'I' for Inactive)
REMARK    1  A    between atoms: C_5  and  C_8 
ROOT
HETATM    1  C   UNL     1       2.195   2.009  -0.373  1.00  0.00     0.068 C 
HETATM    2  C   UNL     1       2.889   0.829   0.203  1.00  0.00     0.012 A 
HETATM    3  C   UNL     1       2.508   0.104   1.313  1.00  0.00     0.076 A 
HETATM    4  S   UNL     1       3.616  -1.166   1.605  1.00  0.00    -0.084 SA
HETATM    5  C   UNL     1       4.552  -0.658   0.242  1.00  0.00     0.082 A 
HETATM    6  N   UNL     1       4.057   0.389  -0.396  1.00  0.00    -0.355 N 
ATOM      7  HN  UNL     1       4.480   0.816  -1.220  1.00  0.00     0.166 HD
ENDROOT
BRANCH   5   8
HETATM    8  C   UNL     1       5.894  -1.300  -0.036  1.00  0.00     0.206 C 
HETATM    9  C   UNL     1       6.635  -0.726  -1.269  1.00  0.00     0.308 C 
HETATM   10  N   UNL     1       6.191  -1.261  -2.571  1.00  0.00     0.088 N 
HETATM   11  C   UNL     1       6.201  -2.725  -2.512  1.00  0.00     0.295 C 
HETATM   12  H   UNL     1       6.813  -0.932  -3.307  1.00  0.00     0.316 HD
HETATM   13  C   UNL     1       5.348  -3.239  -1.345  1.00  0.00     0.198 C 
HETATM   14  O   UNL     1       5.797  -2.741  -0.080  1.00  0.00    -0.376 OA
ENDBRANCH   5   8
TORSDOF 1
