REMARK  6 active torsions:
REMARK  status: ('A' for Active; 'I' for Inactive)
REMARK    1  A    between atoms: O_1  and  C_2 
REMARK    2  A    between atoms: C_2  and  C_3 
REMARK    3  A    between atoms: C_2  and  C_19 
REMARK    4  A    between atoms: C_3  and  N_4 
REMARK    5  A    between atoms: C_7  and  C_16 
REMARK    6  A    between atoms: C_9  and  C_12 
ROOT
HETATM    1  N   UNL     1       2.362   0.552  -2.387  1.00  0.00    -0.254 N 
HETATM    2  N   UNL     1       1.855   1.528  -3.230  1.00  0.00    -0.299 N 
ATOM      3  HN  UNL     1       1.747   2.495  -2.923  1.00  0.00     0.187 HD
HETATM    4  C   UNL     1       1.526   1.157  -4.422  1.00  0.00     0.031 A 
HETATM    5  C   UNL     1       1.601  -0.210  -4.938  1.00  0.00     0.049 A 
HETATM    6  C   UNL     1       2.098  -1.148  -4.120  1.00  0.00     0.119 A 
HETATM    7  C   UNL     1       2.573  -0.774  -2.772  1.00  0.00     0.277 A 
HETATM    8  O   UNL     1       3.114  -1.600  -2.044  1.00  0.00    -0.266 OA
ENDROOT
BRANCH   1   9
HETATM    9  C   UNL     1       2.818   1.011  -1.061  1.00  0.00     0.189 C 
BRANCH   9  10
HETATM   10  C   UNL     1       1.668   1.587  -0.209  1.00  0.00     0.171 C 
BRANCH  10  11
HETATM   11  O   UNL     1       1.081   2.722  -0.859  1.00  0.00    -0.389 OA
HETATM   12  H   UNL     1       1.106   2.505  -1.815  1.00  0.00     0.210 HD
ENDBRANCH  10  11
BRANCH  10  13
HETATM   13  C   UNL     1       2.143   1.996   1.172  1.00  0.00    -0.028 A 
HETATM   14  C   UNL     1       2.097   1.080   2.236  1.00  0.00     0.010 A 
HETATM   15  C   UNL     1       2.525   1.447   3.514  1.00  0.00     0.001 A 
HETATM   16  C   UNL     1       3.016   2.730   3.745  1.00  0.00     0.000 A 
HETATM   17  C   UNL     1       3.087   3.644   2.697  1.00  0.00     0.001 A 
HETATM   18  C   UNL     1       2.658   3.278   1.420  1.00  0.00     0.010 A 
ENDBRANCH  10  13
ENDBRANCH   9  10
ENDBRANCH   1   9
BRANCH   4  19
HETATM   19  C   UNL     1       0.974   2.167  -5.356  1.00  0.00     0.037 A 
HETATM   20  C   UNL     1       1.717   2.509  -6.629  1.00  0.00     0.011 A 
HETATM   21  C   UNL     1       1.623   3.519  -5.526  1.00  0.00     0.011 A 
ENDBRANCH   4  19
BRANCH   6  22
HETATM   22  C   UNL     1       2.170  -2.572  -4.526  1.00  0.00     0.422 C 
HETATM   23  F   UNL     1       2.582  -3.458  -3.591  1.00  0.00    -0.166 F 
HETATM   24  F   UNL     1       0.944  -3.006  -4.937  1.00  0.00    -0.166 F 
HETATM   25  F   UNL     1       2.992  -2.728  -5.600  1.00  0.00    -0.166 F 
ENDBRANCH   6  22
TORSDOF 6
