REMARK  4 active torsions:
REMARK  status: ('A' for Active; 'I' for Inactive)
REMARK    1  A    between atoms: C_2  and  N_7 
REMARK       I    between atoms: N_7  and  C_8 
REMARK       I    between atoms: C_8  and  N_10 
REMARK    2  A    between atoms: N_10  and  C_11 
REMARK    3  A    between atoms: N_15  and  C_16 
REMARK    4  A    between atoms: C_16  and  C_17 
ROOT
HETATM    1  N   UNL     1       3.165   0.030  -1.478  1.00  0.00    -0.332 N 
HETATM    2  C   UNL     1       4.521   0.112  -1.727  1.00  0.00     0.321 C 
HETATM    3  O   UNL     1       5.356  -0.029  -0.843  1.00  0.00    -0.247 OA
HETATM    4  N   UNL     1       4.810   0.309  -3.060  1.00  0.00    -0.306 N 
HETATM    5  H   UNL     1       2.581   0.645  -2.032  1.00  0.00     0.165 HD
HETATM    6  H   UNL     1       4.100   0.079  -3.740  1.00  0.00     0.171 HD
ENDROOT
BRANCH   4   7
HETATM    7  C   UNL     1       6.120   0.432  -3.500  1.00  0.00     0.070 A 
HETATM    8  C   UNL     1       7.302   0.700  -2.768  1.00  0.00     0.138 A 
HETATM    9  N   UNL     1       8.394   0.681  -3.532  1.00  0.00    -0.308 N 
HETATM   10  N   UNL     1       7.918   0.406  -4.756  1.00  0.00    -0.293 N 
ATOM     11  HN  UNL     1       9.362   0.838  -3.252  1.00  0.00     0.186 HD
HETATM   12  C   UNL     1       6.553   0.288  -4.799  1.00  0.00     0.141 A 
BRANCH  10  13
HETATM   13  C   UNL     1       8.861   0.117  -5.810  1.00  0.00     0.265 C 
BRANCH  13  14
HETATM   14  C   UNL     1       9.325   1.349  -6.543  1.00  0.00     0.405 C 
HETATM   15  F   UNL     1       8.720   2.490  -6.155  1.00  0.00    -0.169 F 
HETATM   16  F   UNL     1      10.661   1.525  -6.414  1.00  0.00    -0.169 F 
HETATM   17  F   UNL     1       9.078   1.209  -7.872  1.00  0.00    -0.169 F 
ENDBRANCH  13  14
ENDBRANCH  10  13
ENDBRANCH   4   7
BRANCH   1  18
HETATM   18  C   UNL     1       2.666  -0.330  -0.132  1.00  0.00     0.054 C 
HETATM   19  C   UNL     1       3.120  -1.752   0.234  1.00  0.00     0.041 C 
HETATM   20  C   UNL     1       3.058   0.699   0.927  1.00  0.00     0.059 C 
HETATM   21  C   UNL     1       1.877   1.647   1.014  1.00  0.00     0.170 C 
HETATM   22  O   UNL     1       0.799   1.096   0.252  1.00  0.00    -0.389 OA
HETATM   23  C   UNL     1       1.134  -0.256  -0.082  1.00  0.00     0.198 C 
ENDBRANCH   1  18
TORSDOF 4
