REMARK  8 active torsions:
REMARK  status: ('A' for Active; 'I' for Inactive)
REMARK    1  A    between atoms: O_1  and  C_2 
REMARK    2  A    between atoms: C_2  and  CA_3 
REMARK    3  A    between atoms: CA_3  and  C_4 
REMARK    4  A    between atoms: CA_3  and  N_12 
REMARK    5  A    between atoms: C_4  and  C_5 
REMARK       I    between atoms: N_12  and  C_13 
REMARK    6  A    between atoms: C_13  and  C_15 
REMARK    7  A    between atoms: C_15  and  C_16 
REMARK    8  A    between atoms: C_16  and  C_17 
ROOT
HETATM    1  CA  UNL     1       2.864  -0.551  -1.250  1.00  0.00     0.113 C 
ENDROOT
BRANCH   1   2
HETATM    2  C   UNL     1       2.461   0.278  -0.013  1.00  0.00     0.189 C 
BRANCH   2   3
HETATM    3  O   UNL     1       1.065   0.220   0.244  1.00  0.00    -0.399 OA
HETATM    4  H   UNL     1       0.728   1.131   0.168  1.00  0.00     0.209 HD
ENDBRANCH   2   3
ENDBRANCH   1   2
BRANCH   1   5
HETATM    5  C   UNL     1       2.143  -0.085  -2.535  1.00  0.00     0.084 C 
BRANCH   5   6
HETATM    6  C   UNL     1       2.499   1.319  -2.946  1.00  0.00     0.011 A 
HETATM    7  C   UNL     1       3.585   1.559  -3.785  1.00  0.00     0.025 A 
HETATM    8  C   UNL     1       3.905   2.874  -4.118  1.00  0.00     0.003 A 
HETATM    9  C   UNL     1       3.123   3.905  -3.619  1.00  0.00     0.017 A 
HETATM   10  C   UNL     1       2.056   3.582  -2.800  1.00  0.00     0.088 A 
HETATM   11  N   UNL     1       1.739   2.319  -2.440  1.00  0.00    -0.369 N 
ATOM     12  HN  UNL     1       0.958   2.126  -1.812  1.00  0.00     0.165 HD
ENDBRANCH   5   6
ENDBRANCH   1   5
BRANCH   1  13
HETATM   13  N   UNL     1       4.326  -0.578  -1.383  1.00  0.00    -0.354 N 
HETATM   14  C   UNL     1       4.987  -1.381  -2.283  1.00  0.00     0.217 C 
HETATM   15  O   UNL     1       4.426  -2.128  -3.073  1.00  0.00    -0.274 OA
HETATM   16  H   UNL     1       4.871   0.010  -0.765  1.00  0.00     0.162 HD
BRANCH  14  17
HETATM   17  C   UNL     1       6.493  -1.232  -2.244  1.00  0.00     0.103 C 
BRANCH  17  18
HETATM   18  C   UNL     1       7.056  -1.776  -0.934  1.00  0.00     0.014 C 
BRANCH  18  19
HETATM   19  C   UNL     1       8.576  -1.664  -0.844  1.00  0.00    -0.014 C 
HETATM   20  C   UNL     1       9.337  -2.488  -1.891  1.00  0.00     0.004 C 
HETATM   21  C   UNL     1      10.546  -3.087  -1.171  1.00  0.00     0.000 C 
HETATM   22  C   UNL     1      10.559  -2.466   0.218  1.00  0.00     0.000 C 
HETATM   23  C   UNL     1       9.096  -2.179   0.498  1.00  0.00     0.004 C 
ENDBRANCH  18  19
ENDBRANCH  17  18
ENDBRANCH  14  17
ENDBRANCH   1  13
TORSDOF 8
