REMARK  5 active torsions:
REMARK  status: ('A' for Active; 'I' for Inactive)
REMARK    1  A    between atoms: C_2  and  C_3 
REMARK    2  A    between atoms: C_2  and  N_14 
REMARK       I    between atoms: C_3  and  N_5 
REMARK    3  A    between atoms: N_5  and  C_6 
REMARK    4  A    between atoms: C_6  and  C_7 
REMARK    5  A    between atoms: C_7  and  N_8 
ROOT
HETATM    1  C   UNL     1       2.304  -0.283   1.513  1.00  0.00     0.242 C 
HETATM    2  O   UNL     1       2.647  -1.351   2.024  1.00  0.00    -0.271 OA
HETATM    3  N   UNL     1       2.308   0.912   2.226  1.00  0.00    -0.358 N 
HETATM    4  H   UNL     1       2.273   1.777   1.690  1.00  0.00     0.162 HD
ENDROOT
BRANCH   1   5
HETATM    5  C   UNL     1       1.803  -0.207   0.077  1.00  0.00     0.195 C 
HETATM    6  C   UNL     1       1.746  -1.594  -0.566  1.00  0.00     0.044 C 
BRANCH   5   7
HETATM    7  N   UNL     1       2.628   0.706  -0.698  1.00  0.00    -0.290 N 
HETATM    8  C   UNL     1       3.947   0.562  -1.037  1.00  0.00     0.112 A 
HETATM    9  C   UNL     1       4.279   1.676  -1.769  1.00  0.00     0.037 A 
HETATM   10  C   UNL     1       3.103   2.443  -1.804  1.00  0.00     0.108 A 
HETATM   11  N   UNL     1       2.103   1.874  -1.127  1.00  0.00    -0.309 N 
ATOM     12  HN  UNL     1       1.163   2.237  -0.970  1.00  0.00     0.186 HD
ENDBRANCH   5   7
ENDBRANCH   1   5
BRANCH   3  13
HETATM   13  C   UNL     1       2.958   0.928   3.526  1.00  0.00     0.152 C 
BRANCH  13  14
HETATM   14  C   UNL     1       2.455   2.007   4.504  1.00  0.00     0.292 C 
BRANCH  14  15
HETATM   15  N   UNL     1       3.125   1.914   5.820  1.00  0.00     0.094 N 
HETATM   16  C   UNL     1       2.816   0.665   6.559  1.00  0.00     0.298 C 
HETATM   17  C   UNL     1       1.391   0.624   7.127  1.00  0.00     0.198 C 
HETATM   18  O   UNL     1       1.182   1.715   8.030  1.00  0.00    -0.388 OA
HETATM   19  C   UNL     1       1.403   2.970   7.372  1.00  0.00     0.198 C 
HETATM   20  C   UNL     1       2.792   3.048   6.709  1.00  0.00     0.298 C 
ENDBRANCH  14  15
ENDBRANCH  13  14
ENDBRANCH   3  13
TORSDOF 5
