REMARK  6 active torsions:
REMARK  status: ('A' for Active; 'I' for Inactive)
REMARK    1  A    between atoms: N_4  and  C_9 
REMARK    2  A    between atoms: C_12  and  C_16 
REMARK       I    between atoms: C_16  and  N_18 
REMARK    3  A    between atoms: N_18  and  C_19 
REMARK    4  A    between atoms: C_19  and  C_20 
REMARK    5  A    between atoms: C_20  and  C_21 
REMARK    6  A    between atoms: C_21  and  N_22 
REMARK       I    between atoms: N_22  and  C_23 
ROOT
HETATM    1  C   UNL     1       1.811   1.407  -3.486  1.00  0.00     0.103 A 
HETATM    2  C   UNL     1       1.077   0.875  -4.549  1.00  0.00     0.049 A 
HETATM    3  C   UNL     1       0.503   1.711  -5.502  1.00  0.00     0.022 A 
HETATM    4  C   UNL     1       0.684   3.081  -5.391  1.00  0.00     0.047 A 
HETATM    5  C   UNL     1       1.387   3.549  -4.293  1.00  0.00     0.106 A 
HETATM    6  N   UNL     1       1.940   2.745  -3.343  1.00  0.00    -0.351 N 
ATOM      7  HN  UNL     1       2.438   3.141  -2.546  1.00  0.00     0.166 HD
ENDROOT
BRANCH   4   8
HETATM    8  C   UNL     1       0.100   3.964  -6.422  1.00  0.00     0.253 C 
HETATM    9  O   UNL     1      -0.954   3.650  -6.964  1.00  0.00    -0.268 OA
HETATM   10  N   UNL     1       0.826   5.086  -6.760  1.00  0.00    -0.357 N 
HETATM   11  H   UNL     1       1.759   5.216  -6.389  1.00  0.00     0.162 HD
BRANCH  10  12
HETATM   12  C   UNL     1       0.400   5.959  -7.840  1.00  0.00     0.124 C 
BRANCH  12  13
HETATM   13  C   UNL     1      -0.608   7.010  -7.382  1.00  0.00     0.039 C 
BRANCH  13  14
HETATM   14  C   UNL     1      -0.004   7.949  -6.342  1.00  0.00     0.124 C 
BRANCH  14  15
HETATM   15  N   UNL     1      -0.939   8.973  -5.925  1.00  0.00    -0.361 N 
HETATM   16  C   UNL     1      -1.048  10.171  -6.593  1.00  0.00     0.213 C 
HETATM   17  O   UNL     1      -0.369  10.470  -7.569  1.00  0.00    -0.274 OA
HETATM   18  C   UNL     1      -2.070  11.110  -6.010  1.00  0.00     0.117 C 
HETATM   19  H   UNL     1      -1.601   8.746  -5.194  1.00  0.00     0.162 HD
ENDBRANCH  14  15
ENDBRANCH  13  14
ENDBRANCH  12  13
ENDBRANCH  10  12
ENDBRANCH   4   8
BRANCH   1  20
HETATM   20  N   UNL     1       2.350   0.561  -2.550  1.00  0.00    -0.362 N 
HETATM   21  C   UNL     1       2.616   0.996  -1.181  1.00  0.00     0.156 C 
HETATM   22  C   UNL     1       2.237  -0.173  -0.231  1.00  0.00     0.136 C 
HETATM   23  C   UNL     1       0.721  -0.351  -0.123  1.00  0.00     0.041 C 
HETATM   24  O   UNL     1       2.878  -1.416  -0.607  1.00  0.00    -0.378 OA
HETATM   25  C   UNL     1       2.651  -1.779  -1.986  1.00  0.00     0.136 C 
HETATM   26  C   UNL     1       3.084  -0.645  -2.933  1.00  0.00     0.156 C 
HETATM   27  C   UNL     1       3.426  -3.056  -2.278  1.00  0.00     0.041 C 
ENDBRANCH   1  20
TORSDOF 6
