REMARK  6 active torsions:
REMARK  status: ('A' for Active; 'I' for Inactive)
REMARK    1  A    between atoms: C_2  and  N_5 
REMARK       I    between atoms: N_5  and  C_6 
REMARK    2  A    between atoms: C_6  and  C_8 
REMARK    3  A    between atoms: C_8  and  N_9 
REMARK    4  A    between atoms: C_11  and  C_12 
REMARK    5  A    between atoms: C_12  and  C_13 
REMARK    6  A    between atoms: C_13  and  O_14 
ROOT
HETATM    1  N   UNL     1       6.490  -0.134   3.234  1.00  0.00    -0.294 N 
HETATM    2  C   UNL     1       7.267  -1.135   3.746  1.00  0.00     0.119 A 
HETATM    3  C   UNL     1       8.552  -0.636   3.808  1.00  0.00    -0.022 A 
HETATM    4  C   UNL     1       8.441   0.675   3.294  1.00  0.00     0.115 A 
HETATM    5  N   UNL     1       7.193   0.981   2.934  1.00  0.00    -0.309 N 
ATOM      6  HN  UNL     1       6.850   1.852   2.528  1.00  0.00     0.186 HD
ENDROOT
BRANCH   1   7
HETATM    7  C   UNL     1       5.050  -0.150   3.038  1.00  0.00     0.250 C 
BRANCH   7   8
HETATM    8  C   UNL     1       4.632  -0.064   1.584  1.00  0.00     0.238 C 
HETATM    9  N   UNL     1       5.409   0.734   0.771  1.00  0.00    -0.352 N 
HETATM   10  H   UNL     1       6.211   1.187   1.219  1.00  0.00     0.163 HD
HETATM   11  O   UNL     1       3.610  -0.632   1.197  1.00  0.00    -0.272 OA
BRANCH   9  12
HETATM   12  C   UNL     1       5.188   0.980  -0.657  1.00  0.00     0.022 C 
HETATM   13  C   UNL     1       3.864   1.724  -0.879  1.00  0.00     0.037 C 
HETATM   14  C   UNL     1       5.203  -0.339  -1.447  1.00  0.00     0.037 C 
HETATM   15  C   UNL     1       6.336   1.865  -1.179  1.00  0.00     0.037 C 
ENDBRANCH   9  12
ENDBRANCH   7   8
ENDBRANCH   1   7
BRANCH   3  16
HETATM   16  C   UNL     1       9.789  -1.297   4.320  1.00  0.00     0.067 C 
BRANCH  16  17
HETATM   17  C   UNL     1      10.538  -2.086   3.247  1.00  0.00     0.168 C 
BRANCH  17  18
HETATM   18  O   UNL     1      11.021  -1.231   2.215  1.00  0.00    -0.401 OA
HETATM   19  H   UNL     1      10.245  -0.943   1.700  1.00  0.00     0.209 HD
ENDBRANCH  17  18
ENDBRANCH  16  17
ENDBRANCH   3  16
TORSDOF 6
