REMARK  5 active torsions:
REMARK  status: ('A' for Active; 'I' for Inactive)
REMARK    1  A    between atoms: N_2  and  C_3 
REMARK    2  A    between atoms: N_2  and  C_14 
REMARK    3  A    between atoms: C_3  and  C_4 
REMARK    4  A    between atoms: N_6  and  C_7 
REMARK    5  A    between atoms: C_7  and  C_8 
REMARK       I    between atoms: C_8  and  N_10 
ROOT
HETATM    1  C   UNL     1       2.329  -1.721  -1.947  1.00  0.00     0.167 C 
HETATM    2  C   UNL     1       1.999  -3.091  -1.285  1.00  0.00     0.306 C 
HETATM    3  N   UNL     1       3.171  -4.009  -1.270  1.00  0.00     0.101 N 
HETATM    4  C   UNL     1       3.608  -4.189  -2.674  1.00  0.00     0.299 C 
HETATM    5  C   UNL     1       3.960  -2.842  -3.310  1.00  0.00     0.198 C 
HETATM    6  O   UNL     1       2.851  -1.935  -3.275  1.00  0.00    -0.381 OA
ENDROOT
BRANCH   1   7
HETATM    7  C   UNL     1       3.251  -0.863  -1.039  1.00  0.00     0.157 C 
BRANCH   7   8
HETATM    8  N   UNL     1       3.555   0.495  -1.545  1.00  0.00    -0.368 N 
HETATM    9  C   UNL     1       4.349   0.580  -2.769  1.00  0.00     0.151 C 
BRANCH   8  10
HETATM   10  C   UNL     1       2.502   1.423  -1.519  1.00  0.00     0.117 A 
HETATM   11  C   UNL     1       2.009   1.874  -0.298  1.00  0.00     0.051 A 
HETATM   12  C   UNL     1       1.048   2.884  -0.267  1.00  0.00     0.022 A 
HETATM   13  C   UNL     1       0.597   3.394  -1.465  1.00  0.00     0.107 A 
HETATM   14  N   UNL     1       1.056   2.948  -2.644  1.00  0.00    -0.310 N 
HETATM   15  N   UNL     1       2.023   1.971  -2.660  1.00  0.00    -0.286 N 
ATOM     16  HN  UNL     1       0.692   3.329  -3.517  1.00  0.00     0.186 HD
ATOM     17  HN  UNL     1       2.389   1.650  -3.556  1.00  0.00     0.188 HD
ENDBRANCH   8  10
ENDBRANCH   7   8
ENDBRANCH   1   7
BRANCH   3  18
HETATM   18  C   UNL     1       2.812  -5.337  -0.710  1.00  0.00     0.374 C 
BRANCH  18  19
HETATM   19  C   UNL     1       2.456  -5.236   0.771  1.00  0.00     0.243 C 
HETATM   20  O   UNL     1       1.410  -5.659   1.250  1.00  0.00    -0.272 OA
HETATM   21  N   UNL     1       3.416  -4.657   1.554  1.00  0.00    -0.369 N 
HETATM   22  H   UNL     1       4.134  -4.096   1.113  1.00  0.00     0.159 HD
HETATM   23  H   UNL     1       3.184  -4.487   2.523  1.00  0.00     0.159 HD
ENDBRANCH  18  19
ENDBRANCH   3  18
TORSDOF 5
