REMARK  6 active torsions:
REMARK  status: ('A' for Active; 'I' for Inactive)
REMARK    1  A    between atoms: N_2  and  C_17 
REMARK    2  A    between atoms: N_3  and  C_5 
REMARK    3  A    between atoms: C_15  and  C_17 
REMARK    4  A    between atoms: C_15  and  C_27 
REMARK    5  A    between atoms: C_25  and  O_28 
REMARK    6  A    between atoms: C_27  and  O_29 
ROOT
HETATM    1  C   UNL     1       0.322  -0.860   0.034  1.00  0.00     0.122 A 
HETATM    2  N   UNL     1       1.457   1.007   0.119  1.00  0.00    -0.326 N 
HETATM    3  C   UNL     1       0.182   0.519   0.065  1.00  0.00     0.140 A 
HETATM    4  C   UNL     1      -0.863  -1.628  -0.043  1.00  0.00     0.135 A 
HETATM    5  N   UNL     1       1.667  -1.200   0.080  1.00  0.00    -0.346 N 
ATOM      6  HN  UNL     1       2.068  -2.138   0.098  1.00  0.00     0.167 HD
HETATM    7  C   UNL     1       2.313  -0.056   0.096  1.00  0.00     0.185 A 
HETATM    8  N   UNL     1      -0.957   1.228   0.035  1.00  0.00    -0.336 N 
ATOM      9  HN  UNL     1      -1.008   2.246   0.060  1.00  0.00     0.168 HD
HETATM   10  N   UNL     1      -2.040  -0.940  -0.073  1.00  0.00    -0.337 N 
ATOM     11  HN  UNL     1      -2.927  -1.441  -0.126  1.00  0.00     0.168 HD
HETATM   12  C   UNL     1      -2.022   0.408  -0.032  1.00  0.00     0.183 A 
ENDROOT
BRANCH   4  13
HETATM   13  N   UNL     1      -0.890  -2.992  -0.102  1.00  0.00    -0.365 N 
HETATM   14  C   UNL     1      -2.130  -3.760  -0.139  1.00  0.00     0.129 C 
HETATM   15  C   UNL     1      -1.649  -5.144   0.294  1.00  0.00     0.011 C 
HETATM   16  C   UNL     1      -2.471  -6.352  -0.128  1.00  0.00     0.038 C 
HETATM   17  C   UNL     1      -0.256  -5.208  -0.334  1.00  0.00     0.009 C 
HETATM   18  C   UNL     1      -1.745  -7.645   0.281  1.00  0.00     0.118 C 
HETATM   19  C   UNL     1      -0.279  -7.691  -0.180  1.00  0.00     0.032 C 
HETATM   20  C   UNL     1       0.511  -6.418   0.164  1.00  0.00     0.009 C 
HETATM   21  C   UNL     1       0.303  -3.830   0.005  1.00  0.00     0.129 C 
BRANCH  18  22
HETATM   22  O   UNL     1      -1.808  -7.805   1.700  1.00  0.00    -0.396 OA
HETATM   23  H   UNL     1      -1.240  -7.139   2.120  1.00  0.00     0.210 HD
ENDBRANCH  18  22
ENDBRANCH   4  13
BRANCH   2  24
HETATM   24  C   UNL     1       1.824   2.412   0.114  1.00  0.00     0.147 C 
BRANCH  24  25
HETATM   25  C   UNL     1       2.005   3.010   1.502  1.00  0.00     0.040 C 
HETATM   26  C   UNL     1       0.751   3.116   2.397  1.00  0.00     0.183 C 
HETATM   27  O   UNL     1       0.955   4.540   2.567  1.00  0.00    -0.389 OA
HETATM   28  C   UNL     1       1.919   4.549   1.486  1.00  0.00     0.183 C 
BRANCH  25  29
HETATM   29  C   UNL     1       3.211   2.482   2.270  1.00  0.00     0.179 C 
BRANCH  29  30
HETATM   30  O   UNL     1       4.394   2.709   1.510  1.00  0.00    -0.400 OA
HETATM   31  H   UNL     1       4.607   1.898   1.018  1.00  0.00     0.209 HD
ENDBRANCH  29  30
ENDBRANCH  25  29
ENDBRANCH  24  25
ENDBRANCH   2  24
TORSDOF 6
