REMARK  4 active torsions:
REMARK  status: ('A' for Active; 'I' for Inactive)
REMARK    1  A    between atoms: C_2  and  C_4 
REMARK       I    between atoms: C_4  and  N_6 
REMARK    2  A    between atoms: C_9  and  N_12 
REMARK       I    between atoms: N_12  and  C_13 
REMARK       I    between atoms: C_13  and  N_15 
REMARK    3  A    between atoms: N_15  and  C_16 
REMARK    4  A    between atoms: C_20  and  C_24 
ROOT
HETATM    1  N   UNL     1       8.141  -1.592  -1.579  1.00  0.00    -0.338 N 
HETATM    2  C   UNL     1       9.310  -2.272  -1.803  1.00  0.00     0.321 C 
HETATM    3  O   UNL     1       9.562  -2.840  -2.855  1.00  0.00    -0.247 OA
HETATM    4  N   UNL     1      10.115  -2.286  -0.683  1.00  0.00    -0.306 N 
HETATM    5  H   UNL     1       8.166  -0.862  -0.882  1.00  0.00     0.164 HD
HETATM    6  H   UNL     1       9.609  -2.299   0.191  1.00  0.00     0.171 HD
ENDROOT
BRANCH   1   7
HETATM    7  C   UNL     1       7.050  -1.634  -2.551  1.00  0.00     0.089 C 
HETATM    8  C   UNL     1       6.303  -0.302  -2.625  1.00  0.00     0.045 C 
HETATM    9  C   UNL     1       5.476  -0.050  -1.369  1.00  0.00     0.127 C 
HETATM   10  N   UNL     1       4.572  -1.169  -1.116  1.00  0.00    -0.352 N 
HETATM   11  C   UNL     1       3.191  -1.086  -0.959  1.00  0.00     0.223 C 
HETATM   12  C   UNL     1       5.220  -2.478  -1.009  1.00  0.00     0.127 C 
HETATM   13  O   UNL     1       2.498  -2.094  -0.804  1.00  0.00    -0.273 OA
HETATM   14  C   UNL     1       6.082  -2.781  -2.232  1.00  0.00     0.045 C 
BRANCH  11  15
HETATM   15  C   UNL     1       2.553   0.305  -0.905  1.00  0.00     0.070 C 
HETATM   16  C   UNL     1       1.063   0.244  -1.239  1.00  0.00     0.019 C 
HETATM   17  C   UNL     1       2.767   0.906   0.481  1.00  0.00     0.019 C 
ENDBRANCH  11  15
ENDBRANCH   1   7
BRANCH   4  18
HETATM   18  C   UNL     1      11.378  -2.914  -0.707  1.00  0.00     0.067 A 
HETATM   19  C   UNL     1      12.255  -2.829  -1.768  1.00  0.00     0.120 A 
HETATM   20  N   UNL     1      13.459  -3.440  -1.798  1.00  0.00    -0.353 N 
HETATM   21  C   UNL     1      13.791  -4.189  -0.729  1.00  0.00     0.088 A 
ATOM     22  HN  UNL     1      14.088  -3.339  -2.594  1.00  0.00     0.166 HD
HETATM   23  N   UNL     1      13.006  -4.328   0.363  1.00  0.00    -0.353 N 
HETATM   24  C   UNL     1      11.823  -3.676   0.350  1.00  0.00     0.120 A 
ATOM     25  HN  UNL     1      13.293  -4.898   1.159  1.00  0.00     0.166 HD
BRANCH  21  26
HETATM   26  C   UNL     1      15.137  -4.909  -0.734  1.00  0.00     0.007 C 
HETATM   27  C   UNL     1      15.961  -4.571  -1.993  1.00  0.00     0.022 C 
HETATM   28  C   UNL     1      15.939  -4.475   0.504  1.00  0.00     0.022 C 
HETATM   29  C   UNL     1      14.911  -6.431  -0.698  1.00  0.00     0.022 C 
ENDBRANCH  21  26
ENDBRANCH   4  18
TORSDOF 4
