REMARK  7 active torsions:
REMARK  status: ('A' for Active; 'I' for Inactive)
REMARK    1  A    between atoms: N_1  and  C_9 
REMARK    2  A    between atoms: N_4  and  C_7 
REMARK    3  A    between atoms: C_11  and  N_18 
REMARK    4  A    between atoms: C_19  and  C_24 
REMARK    5  A    between atoms: C_19  and  C_25 
REMARK    6  A    between atoms: C_24  and  O_29 
REMARK    7  A    between atoms: C_25  and  O_30 
ROOT
HETATM    1  N   UNL     1       1.609   1.117  -0.024  1.00  0.00    -0.322 N 
HETATM    2  C   UNL     1       0.371  -0.674  -0.114  1.00  0.00     0.122 A 
HETATM    3  C   UNL     1       0.294   0.717  -0.052  1.00  0.00     0.140 A 
HETATM    4  N   UNL     1       1.690  -1.096  -0.129  1.00  0.00    -0.346 N 
ATOM      5  HN  UNL     1       2.035  -2.054  -0.185  1.00  0.00     0.167 HD
HETATM    6  C   UNL     1      -0.837  -1.422  -0.137  1.00  0.00     0.135 A 
HETATM    7  C   UNL     1       2.397   0.001  -0.056  1.00  0.00     0.185 A 
HETATM    8  N   UNL     1      -0.830   1.451  -0.017  1.00  0.00    -0.336 N 
ATOM      9  HN  UNL     1      -0.857   2.470   0.029  1.00  0.00     0.168 HD
HETATM   10  N   UNL     1      -1.992  -0.700  -0.106  1.00  0.00    -0.337 N 
ATOM     11  HN  UNL     1      -2.897  -1.171  -0.124  1.00  0.00     0.168 HD
HETATM   12  C   UNL     1      -1.922   0.653  -0.051  1.00  0.00     0.183 A 
ENDROOT
BRANCH   6  13
HETATM   13  N   UNL     1      -0.876  -2.795  -0.158  1.00  0.00    -0.363 N 
HETATM   14  C   UNL     1       0.313  -3.605  -0.358  1.00  0.00     0.160 C 
HETATM   15  C   UNL     1      -0.147  -5.090  -0.229  1.00  0.00     0.246 C 
HETATM   16  C   UNL     1      -1.598  -4.967   0.335  1.00  0.00     0.034 C 
HETATM   17  C   UNL     1      -2.076  -3.598  -0.211  1.00  0.00     0.131 C 
HETATM   18  C   UNL     1      -1.744  -4.983   1.860  1.00  0.00     0.014 C 
BRANCH  15  19
HETATM   19  N   UNL     1       0.857  -5.914   0.491  1.00  0.00     0.099 N 
HETATM   20  C   UNL     1       2.161  -5.980  -0.226  1.00  0.00     0.299 C 
HETATM   21  C   UNL     1       2.191  -6.965  -1.414  1.00  0.00     0.198 C 
HETATM   22  O   UNL     1       1.732  -8.272  -1.050  1.00  0.00    -0.388 OA
HETATM   23  C   UNL     1       0.437  -8.207  -0.445  1.00  0.00     0.198 C 
HETATM   24  C   UNL     1       0.460  -7.301   0.788  1.00  0.00     0.299 C 
ENDBRANCH  15  19
ENDBRANCH   6  13
BRANCH   1  25
HETATM   25  C   UNL     1       2.229   2.414   0.023  1.00  0.00     0.094 C 
HETATM   26  C   UNL     1       1.752   3.369   1.166  1.00  0.00     0.039 C 
HETATM   27  C   UNL     1       2.085   4.546   0.175  1.00  0.00     0.006 C 
HETATM   28  C   UNL     1       1.695   3.500  -0.941  1.00  0.00     0.039 C 
BRANCH  27  29
HETATM   29  C   UNL     1       1.156   5.752   0.311  1.00  0.00     0.175 C 
BRANCH  29  30
HETATM   30  O   UNL     1       1.255   6.578  -0.846  1.00  0.00    -0.400 OA
HETATM   31  H   UNL     1       2.202   6.790  -0.968  1.00  0.00     0.209 HD
ENDBRANCH  29  30
ENDBRANCH  27  29
BRANCH  27  32
HETATM   32  C   UNL     1       3.561   4.987   0.230  1.00  0.00     0.175 C 
BRANCH  32  33
HETATM   33  O   UNL     1       3.898   5.686  -0.965  1.00  0.00    -0.400 OA
HETATM   34  H   UNL     1       4.052   5.021  -1.660  1.00  0.00     0.209 HD
ENDBRANCH  32  33
ENDBRANCH  27  32
ENDBRANCH   1  25
TORSDOF 7
