REMARK  8 active torsions:
REMARK  status: ('A' for Active; 'I' for Inactive)
REMARK    1  A    between atoms: O_1  and  C_2 
REMARK    2  A    between atoms: C_2  and  C_3 
REMARK    3  A    between atoms: C_3  and  N_4 
REMARK    4  A    between atoms: N_4  and  C_5 
REMARK    5  A    between atoms: N_9  and  C_10 
REMARK    6  A    between atoms: C_10  and  C_11 
REMARK    7  A    between atoms: C_11  and  O_12 
REMARK    8  A    between atoms: O_12  and  C_13 
ROOT
HETATM    1  C   UNL     1       4.938   2.783   0.568  1.00  0.00     0.053 A 
HETATM    2  C   UNL     1       6.321   2.823   1.099  1.00  0.00     0.132 A 
HETATM    3  N   UNL     1       7.004   3.875   1.414  1.00  0.00    -0.305 N 
ATOM      4  HN  UNL     1       7.954   3.802   1.779  1.00  0.00     0.186 HD
HETATM    5  N   UNL     1       6.397   5.096   1.237  1.00  0.00    -0.254 N 
HETATM    6  C   UNL     1       5.108   5.251   0.728  1.00  0.00     0.285 A 
HETATM    7  O   UNL     1       4.591   6.353   0.544  1.00  0.00    -0.265 OA
HETATM    8  C   UNL     1       4.375   3.990   0.418  1.00  0.00     0.126 A 
HETATM    9 CL   UNL     1       2.765   4.146  -0.201  1.00  0.00    -0.076 Cl
ENDROOT
BRANCH   5  10
HETATM   10  C   UNL     1       7.148   6.298   1.592  1.00  0.00     0.179 C 
BRANCH  10  11
HETATM   11  C   UNL     1       8.517   6.062   2.229  1.00  0.00     0.197 C 
BRANCH  11  12
HETATM   12  O   UNL     1       9.110   7.336   2.520  1.00  0.00    -0.349 OA
BRANCH  12  13
HETATM   13  C   UNL     1      10.381   7.294   3.025  1.00  0.00     0.068 A 
HETATM   14  C   UNL     1      11.176   8.408   2.742  1.00  0.00     0.038 A 
HETATM   15  C   UNL     1      12.491   8.478   3.209  1.00  0.00     0.026 A 
HETATM   16  C   UNL     1      13.005   7.438   3.979  1.00  0.00     0.034 A 
HETATM   17 CL   UNL     1      14.625   7.513   4.553  1.00  0.00    -0.084 Cl
HETATM   18  C   UNL     1      12.211   6.336   4.291  1.00  0.00     0.026 A 
HETATM   19  C   UNL     1      10.898   6.265   3.815  1.00  0.00     0.038 A 
ENDBRANCH  12  13
ENDBRANCH  11  12
ENDBRANCH  10  11
ENDBRANCH   5  10
BRANCH   1  20
HETATM   20  N   UNL     1       4.369   1.528   0.327  1.00  0.00    -0.288 NA
HETATM   21  H   UNL     1       3.345   1.601   0.415  1.00  0.00     0.127 HD
BRANCH  20  22
HETATM   22  C   UNL     1       4.591   0.878  -0.979  1.00  0.00     0.118 C 
BRANCH  22  23
HETATM   23  C   UNL     1       3.834  -0.453  -1.039  1.00  0.00     0.178 C 
BRANCH  23  24
HETATM   24  O   UNL     1       2.434  -0.219  -0.883  1.00  0.00    -0.400 OA
HETATM   25  H   UNL     1       1.991  -1.082  -0.978  1.00  0.00     0.209 HD
ENDBRANCH  23  24
ENDBRANCH  22  23
ENDBRANCH  20  22
ENDBRANCH   1  20
TORSDOF 8
