REMARK  7 active torsions:
REMARK  status: ('A' for Active; 'I' for Inactive)
REMARK    1  A    between atoms: N_5  and  C_6 
REMARK    2  A    between atoms: C_6  and  C_7 
REMARK    3  A    between atoms: C_7  and  O_8 
REMARK    4  A    between atoms: C_7  and  C_9 
REMARK    5  A    between atoms: C_9  and  O_10 
REMARK    6  A    between atoms: O_10  and  C_11 
REMARK    7  A    between atoms: C_11  and  C_12 
ROOT
HETATM    1  C   UNL     1       5.557   1.642  -0.113  1.00  0.00     0.168 C 
ENDROOT
BRANCH   1   2
HETATM    2  N   UNL     1       4.413   0.764  -0.154  1.00  0.00    -0.295 N 
HETATM    3  C   UNL     1       3.820   0.159   0.973  1.00  0.00     0.329 A 
HETATM    4  N   UNL     1       2.776  -0.654   0.483  1.00  0.00    -0.302 N 
HETATM    5  O   UNL     1       4.165   0.312   2.138  1.00  0.00    -0.246 OA
HETATM    6  C   UNL     1       1.927  -1.497   1.272  1.00  0.00     0.161 C 
HETATM    7  C   UNL     1       2.713  -0.521  -0.910  1.00  0.00     0.065 A 
HETATM    8  C   UNL     1       3.721   0.363  -1.304  1.00  0.00     0.066 A 
HETATM    9  C   UNL     1       1.862  -1.108  -1.825  1.00  0.00     0.032 A 
HETATM   10  C   UNL     1       3.914   0.704  -2.626  1.00  0.00     0.032 A 
HETATM   11  C   UNL     1       3.057   0.120  -3.568  1.00  0.00     0.002 A 
HETATM   12  C   UNL     1       2.044  -0.776  -3.171  1.00  0.00     0.002 A 
ENDBRANCH   1   2
BRANCH   1  13
HETATM   13  C   UNL     1       5.175   3.131  -0.010  1.00  0.00     0.160 C 
BRANCH  13  14
HETATM   14  O   UNL     1       4.466   3.429   1.198  1.00  0.00    -0.392 OA
HETATM   15  H   UNL     1       4.719   2.775   1.877  1.00  0.00     0.210 HD
ENDBRANCH  13  14
BRANCH  13  16
HETATM   16  C   UNL     1       6.428   4.013  -0.061  1.00  0.00     0.201 C 
BRANCH  16  17
HETATM   17  O   UNL     1       7.140   3.780  -1.272  1.00  0.00    -0.384 OA
BRANCH  17  18
HETATM   18  C   UNL     1       8.325   4.574  -1.348  1.00  0.00     0.213 C 
BRANCH  18  19
HETATM   19  C   UNL     1       9.006   4.256  -2.643  1.00  0.00     0.006 A 
HETATM   20  C   UNL     1       8.643   3.370  -3.640  1.00  0.00     0.017 A 
HETATM   21  C   UNL     1       9.565   3.360  -4.725  1.00  0.00     0.008 A 
HETATM   22  C   UNL     1      10.606   4.235  -4.523  1.00  0.00     0.050 A 
HETATM   23  S   UNL     1      10.469   5.064  -3.034  1.00  0.00    -0.104 SA
ENDBRANCH  18  19
ENDBRANCH  17  18
ENDBRANCH  16  17
ENDBRANCH  13  16
ENDBRANCH   1  13
TORSDOF 7
