REMARK  6 active torsions:
REMARK  status: ('A' for Active; 'I' for Inactive)
REMARK    1  A    between atoms: C_2  and  N_3 
REMARK    2  A    between atoms: C_2  and  C_12 
REMARK    3  A    between atoms: N_3  and  C_4 
REMARK    4  A    between atoms: C_4  and  C_5 
REMARK    5  A    between atoms: C_5  and  N_6 
REMARK       I    between atoms: C_12  and  N_14 
REMARK    6  A    between atoms: N_14  and  C_16 
ROOT
HETATM    1  C   UNL     1       0.932  -0.383  -0.336  1.00  0.00     0.053 C 
HETATM    2  C   UNL     1       2.425  -0.134  -0.085  1.00  0.00     0.307 C 
ENDROOT
BRANCH   2   3
HETATM    3  N   UNL     1       3.211  -1.394  -0.198  1.00  0.00     0.098 N 
HETATM    4  H   UNL     1       2.774  -2.096   0.402  1.00  0.00     0.317 HD
BRANCH   3   5
HETATM    5  C   UNL     1       3.272  -1.918  -1.574  1.00  0.00     0.292 C 
BRANCH   5   6
HETATM    6  C   UNL     1       4.212  -3.120  -1.658  1.00  0.00     0.178 C 
BRANCH   6   7
HETATM    7  N   UNL     1       4.259  -3.648  -3.008  1.00  0.00    -0.302 N 
HETATM    8  C   UNL     1       5.127  -3.291  -3.999  1.00  0.00     0.111 A 
HETATM    9  C   UNL     1       4.772  -4.036  -5.099  1.00  0.00     0.037 A 
HETATM   10  C   UNL     1       3.678  -4.808  -4.669  1.00  0.00     0.108 A 
HETATM   11  N   UNL     1       3.361  -4.575  -3.393  1.00  0.00    -0.310 N 
ATOM     12  HN  UNL     1       2.615  -4.999  -2.841  1.00  0.00     0.186 HD
ENDBRANCH   6   7
ENDBRANCH   5   6
ENDBRANCH   3   5
ENDBRANCH   2   3
BRANCH   2  13
HETATM   13  C   UNL     1       2.994   0.980  -1.018  1.00  0.00     0.252 C 
HETATM   14  O   UNL     1       2.268   1.409  -1.919  1.00  0.00    -0.271 OA
HETATM   15  N   UNL     1       4.309   1.435  -0.809  1.00  0.00    -0.350 N 
HETATM   16  C   UNL     1       5.137   0.834   0.242  1.00  0.00     0.153 C 
BRANCH  15  17
HETATM   17  C   UNL     1       5.058   2.157  -1.890  1.00  0.00     0.086 C 
HETATM   18  C   UNL     1       6.150   3.105  -1.335  1.00  0.00     0.025 C 
HETATM   19  C   UNL     1       5.522   4.307  -0.627  1.00  0.00     0.002 C 
HETATM   20  C   UNL     1       4.649   5.109  -1.587  1.00  0.00     0.000 C 
HETATM   21  C   UNL     1       3.613   4.232  -2.289  1.00  0.00     0.002 C 
HETATM   22  C   UNL     1       4.252   2.992  -2.912  1.00  0.00     0.025 C 
ENDBRANCH  15  17
ENDBRANCH   2  13
TORSDOF 6
