REMARK  6 active torsions:
REMARK  status: ('A' for Active; 'I' for Inactive)
REMARK    1  A    between atoms: O_2  and  C_3 
REMARK    2  A    between atoms: C_3  and  C_4 
REMARK    3  A    between atoms: C_4  and  N_5 
REMARK    4  A    between atoms: C_6  and  C_15 
REMARK    5  A    between atoms: C_18  and  O_19 
REMARK    6  A    between atoms: C_21  and  O_22 
ROOT
HETATM    1  N   UNL     1       4.796  -2.063  -1.778  1.00  0.00    -0.329 N 
HETATM    2  C   UNL     1       5.442  -1.807  -2.983  1.00  0.00     0.119 A 
HETATM    3  N   UNL     1       5.604  -2.946  -3.642  1.00  0.00    -0.340 N 
ATOM      4  HN  UNL     1       6.041  -3.060  -4.557  1.00  0.00     0.167 HD
HETATM    5  C   UNL     1       5.075  -3.939  -2.865  1.00  0.00     0.060 A 
HETATM    6  C   UNL     1       4.968  -5.314  -3.122  1.00  0.00     0.032 A 
HETATM    7  C   UNL     1       4.359  -6.137  -2.167  1.00  0.00     0.002 A 
HETATM    8  C   UNL     1       3.875  -5.603  -0.974  1.00  0.00     0.002 A 
HETATM    9  C   UNL     1       3.972  -4.233  -0.703  1.00  0.00     0.032 A 
HETATM   10  C   UNL     1       4.575  -3.423  -1.678  1.00  0.00     0.063 A 
ENDROOT
BRANCH   2  11
HETATM   11  C   UNL     1       5.800  -0.495  -3.555  1.00  0.00     0.011 A 
HETATM   12  C   UNL     1       6.245   0.592  -2.789  1.00  0.00     0.018 A 
HETATM   13  C   UNL     1       6.507   1.843  -3.372  1.00  0.00     0.040 A 
HETATM   14  C   UNL     1       6.362   2.021  -4.744  1.00  0.00     0.101 A 
HETATM   15  C   UNL     1       5.976   0.924  -5.518  1.00  0.00     0.099 A 
HETATM   16  C   UNL     1       5.700  -0.316  -4.944  1.00  0.00     0.054 A 
BRANCH  14  17
HETATM   17  O   UNL     1       6.569   3.185  -5.437  1.00  0.00    -0.353 OA
HETATM   18  C   UNL     1       6.917   4.330  -4.666  1.00  0.00     0.210 C 
ENDBRANCH  14  17
BRANCH  15  19
HETATM   19  O   UNL     1       5.850   1.053  -6.876  1.00  0.00    -0.358 OA
HETATM   20  H   UNL     1       6.101   1.977  -7.068  1.00  0.00     0.217 HD
ENDBRANCH  15  19
ENDBRANCH   2  11
BRANCH   1  21
HETATM   21  C   UNL     1       4.288  -1.102  -0.818  1.00  0.00     0.157 C 
BRANCH  21  22
HETATM   22  C   UNL     1       3.130  -0.281  -1.364  1.00  0.00     0.187 C 
BRANCH  22  23
HETATM   23  O   UNL     1       2.668   0.598  -0.337  1.00  0.00    -0.394 OA
HETATM   24  C   UNL     1       1.597   1.411  -0.806  1.00  0.00     0.201 C 
ENDBRANCH  22  23
ENDBRANCH  21  22
ENDBRANCH   1  21
TORSDOF 6
