REMARK  4 active torsions:
REMARK  status: ('A' for Active; 'I' for Inactive)
REMARK    1  A    between atoms: C_5  and  N_22 
REMARK    2  A    between atoms: C_8  and  N_9 
REMARK       I    between atoms: N_9  and  C_10 
REMARK       I    between atoms: C_10  and  N_12 
REMARK    3  A    between atoms: N_12  and  C_13 
REMARK    4  A    between atoms: C_17  and  C_19 
ROOT
HETATM    1  N   UNL     1       2.469  -2.313   0.112  1.00  0.00    -0.307 N 
HETATM    2  C   UNL     1       1.231  -2.488  -0.478  1.00  0.00     0.321 C 
HETATM    3  O   UNL     1       0.668  -1.682  -1.202  1.00  0.00    -0.247 OA
HETATM    4  N   UNL     1       0.703  -3.725  -0.175  1.00  0.00    -0.338 N 
HETATM    5  H   UNL     1       3.033  -3.150   0.088  1.00  0.00     0.170 HD
HETATM    6  H   UNL     1       1.313  -4.374   0.298  1.00  0.00     0.164 HD
ENDROOT
BRANCH   1   7
HETATM    7  C   UNL     1       3.192  -1.097   0.035  1.00  0.00     0.058 A 
HETATM    8  C   UNL     1       2.702   0.166   0.372  1.00  0.00     0.034 A 
HETATM    9  C   UNL     1       1.327   0.394   0.928  1.00  0.00     0.070 C 
HETATM   10  N   UNL     1       3.476   1.287   0.317  1.00  0.00    -0.344 N 
HETATM   11  C   UNL     1       4.759   1.221  -0.095  1.00  0.00     0.103 A 
ATOM     12  HN  UNL     1       3.080   2.186   0.591  1.00  0.00     0.167 HD
HETATM   13  C   UNL     1       5.306  -0.013  -0.427  1.00  0.00     0.051 A 
HETATM   14  C   UNL     1       4.536  -1.175  -0.337  1.00  0.00     0.035 A 
BRANCH  11  15
HETATM   15  N   UNL     1       5.467   2.386  -0.177  1.00  0.00    -0.367 N 
HETATM   16  C   UNL     1       6.828   2.538  -0.654  1.00  0.00     0.124 C 
HETATM   17  C   UNL     1       7.050   4.053  -0.729  1.00  0.00     0.021 C 
HETATM   18  C   UNL     1       5.672   4.675  -0.549  1.00  0.00     0.021 C 
HETATM   19  C   UNL     1       4.898   3.647   0.266  1.00  0.00     0.124 C 
ENDBRANCH  11  15
ENDBRANCH   1   7
BRANCH   4  20
HETATM   20  C   UNL     1      -0.482  -4.270  -0.852  1.00  0.00     0.090 C 
HETATM   21  C   UNL     1      -1.775  -3.472  -0.613  1.00  0.00     0.051 C 
HETATM   22  C   UNL     1      -2.400  -3.734   0.754  1.00  0.00     0.170 C 
HETATM   23  O   UNL     1      -2.507  -5.133   1.030  1.00  0.00    -0.385 OA
HETATM   24  C   UNL     1      -1.227  -5.765   1.004  1.00  0.00     0.127 C 
HETATM   25  C   UNL     1      -0.705  -5.728  -0.431  1.00  0.00     0.057 C 
BRANCH  24  26
HETATM   26  C   UNL     1      -1.357  -7.172   1.514  1.00  0.00     0.015 A 
HETATM   27  C   UNL     1      -1.703  -7.434   2.959  1.00  0.00     0.007 A 
HETATM   28  C   UNL     1      -0.313  -7.714   2.463  1.00  0.00     0.007 A 
ENDBRANCH  24  26
ENDBRANCH   4  20
TORSDOF 4
