REMARK  7 active torsions:
REMARK  status: ('A' for Active; 'I' for Inactive)
REMARK    1  A    between atoms: N_2  and  C_14 
REMARK    2  A    between atoms: C_3  and  N_9 
REMARK    3  A    between atoms: C_7  and  N_9 
REMARK    4  A    between atoms: C_12  and  C_14 
REMARK    5  A    between atoms: C_12  and  O_23 
REMARK    6  A    between atoms: C_13  and  O_25 
REMARK    7  A    between atoms: O_25  and  C_30 
ROOT
HETATM    1  C   UNL     1       0.337  -0.748  -0.245  1.00  0.00     0.122 A 
HETATM    2  N   UNL     1       1.464   1.137  -0.257  1.00  0.00    -0.324 N 
HETATM    3  C   UNL     1      -0.854  -1.522  -0.148  1.00  0.00     0.135 A 
HETATM    4  C   UNL     1       0.194   0.637  -0.287  1.00  0.00     0.140 A 
HETATM    5  N   UNL     1       1.684  -1.072  -0.261  1.00  0.00    -0.346 N 
ATOM      6  HN  UNL     1       2.093  -2.006  -0.291  1.00  0.00     0.167 HD
HETATM    7  C   UNL     1       2.325   0.075  -0.230  1.00  0.00     0.185 A 
HETATM    8  N   UNL     1      -2.022  -0.804  -0.139  1.00  0.00    -0.337 N 
ATOM      9  HN  UNL     1      -2.913  -1.294  -0.061  1.00  0.00     0.168 HD
HETATM   10  N   UNL     1      -0.941   1.349  -0.312  1.00  0.00    -0.336 N 
ATOM     11  HN  UNL     1      -0.987   2.366  -0.382  1.00  0.00     0.168 HD
HETATM   12  C   UNL     1      -2.009   0.539  -0.232  1.00  0.00     0.183 A 
ENDROOT
BRANCH   3  13
HETATM   13  N   UNL     1      -0.942  -2.945  -0.023  1.00  0.00    -0.364 N 
HETATM   14  C   UNL     1       0.354  -3.624  -0.064  1.00  0.00     0.152 C 
BRANCH  13  15
HETATM   15  C   UNL     1      -1.996  -3.551   0.779  1.00  0.00     0.098 C 
HETATM   16  C   UNL     1      -2.380  -5.048   0.459  1.00  0.00    -0.001 C 
HETATM   17  C   UNL     1      -3.873  -4.607   0.669  1.00  0.00     0.133 C 
HETATM   18  C   UNL     1      -2.169  -5.582  -0.965  1.00  0.00     0.019 C 
HETATM   19  C   UNL     1      -1.882  -6.064   1.491  1.00  0.00     0.019 C 
HETATM   20  C   UNL     1      -3.428  -3.172   0.326  1.00  0.00     0.059 C 
BRANCH  17  21
HETATM   21  O   UNL     1      -4.437  -4.781   1.993  1.00  0.00    -0.385 OA
BRANCH  21  22
HETATM   22  C   UNL     1      -5.781  -4.329   2.147  1.00  0.00     0.163 C 
HETATM   23  C   UNL     1      -6.207  -4.524   3.586  1.00  0.00     0.033 C 
ENDBRANCH  21  22
ENDBRANCH  17  21
ENDBRANCH  13  15
ENDBRANCH   3  13
BRANCH   2  24
HETATM   24  C   UNL     1       1.834   2.532  -0.129  1.00  0.00     0.172 C 
BRANCH  24  25
HETATM   25  C   UNL     1       2.005   3.281  -1.460  1.00  0.00     0.102 C 
HETATM   26  C   UNL     1       3.063   2.699  -2.422  1.00  0.00     0.153 C 
HETATM   27  O   UNL     1       3.648   3.815  -3.134  1.00  0.00    -0.383 OA
HETATM   28  C   UNL     1       2.556   1.710  -3.459  1.00  0.00     0.042 C 
HETATM   29  C   UNL     1       3.100   5.026  -2.599  1.00  0.00     0.171 C 
HETATM   30  C   UNL     1       2.588   4.670  -1.221  1.00  0.00     0.068 C 
BRANCH  25  31
HETATM   31  O   UNL     1       0.736   3.487  -2.097  1.00  0.00    -0.385 OA
HETATM   32  H   UNL     1       0.216   2.662  -2.065  1.00  0.00     0.210 HD
ENDBRANCH  25  31
ENDBRANCH  24  25
ENDBRANCH   2  24
TORSDOF 7
