REMARK  5 active torsions:
REMARK  status: ('A' for Active; 'I' for Inactive)
REMARK       I    between atoms: C_2  and  N_3 
REMARK       I    between atoms: C_2  and  N_18 
REMARK    1  A    between atoms: N_3  and  C_4 
REMARK    2  A    between atoms: C_4  and  C_5 
REMARK    3  A    between atoms: C_5  and  C_6 
REMARK    4  A    between atoms: C_6  and  N_7 
REMARK    5  A    between atoms: N_18  and  C_19 
ROOT
HETATM    1  C   UNL     1       2.304   1.612   1.992  1.00  0.00     0.126 C 
ENDROOT
BRANCH   1   2
HETATM    2  N   UNL     1       2.931   0.783   0.979  1.00  0.00    -0.343 N 
HETATM    3  C   UNL     1       3.188   1.302  -0.271  1.00  0.00     0.320 C 
HETATM    4  O   UNL     1       2.851   2.436  -0.577  1.00  0.00    -0.247 OA
HETATM    5  N   UNL     1       3.803   0.380  -1.090  1.00  0.00    -0.308 N 
HETATM    6  H   UNL     1       3.803  -0.574  -0.763  1.00  0.00     0.170 HD
HETATM    7  H   UNL     1       3.471  -0.009   1.290  1.00  0.00     0.164 HD
BRANCH   5   8
HETATM    8  C   UNL     1       4.179   0.599  -2.433  1.00  0.00     0.051 A 
HETATM    9  C   UNL     1       4.249   1.859  -3.024  1.00  0.00     0.032 A 
HETATM   10  C   UNL     1       4.569   1.979  -4.375  1.00  0.00     0.019 A 
HETATM   11  C   UNL     1       4.827   0.827  -5.096  1.00  0.00     0.088 A 
HETATM   12  N   UNL     1       4.810  -0.411  -4.558  1.00  0.00    -0.373 N 
HETATM   13  C   UNL     1       4.492  -0.492  -3.243  1.00  0.00     0.117 A 
ATOM     14  HN  UNL     1       5.025  -1.241  -5.111  1.00  0.00     0.164 HD
ENDBRANCH   5   8
ENDBRANCH   1   2
BRANCH   1  15
HETATM   15  C   UNL     1       3.307   2.536   2.679  1.00  0.00     0.040 C 
BRANCH  15  16
HETATM   16  C   UNL     1       2.603   3.453   3.674  1.00  0.00     0.138 C 
BRANCH  16  17
HETATM   17  N   UNL     1       3.530   4.324   4.367  1.00  0.00    -0.268 N 
HETATM   18  C   UNL     1       4.145   4.019   5.542  1.00  0.00     0.326 C 
HETATM   19  O   UNL     1       4.046   2.988   6.186  1.00  0.00    -0.247 OA
HETATM   20  N   UNL     1       4.945   5.078   5.904  1.00  0.00    -0.324 N 
HETATM   21  C   UNL     1       4.846   6.180   4.981  1.00  0.00     0.116 C 
HETATM   22  H   UNL     1       5.471   5.064   6.768  1.00  0.00     0.165 HD
HETATM   23  C   UNL     1       6.202   6.669   4.485  1.00  0.00     0.041 C 
HETATM   24  C   UNL     1       4.113   7.395   5.568  1.00  0.00     0.041 C 
HETATM   25  C   UNL     1       3.981   5.526   3.890  1.00  0.00     0.256 C 
HETATM   26  C   UNL     1       6.015   8.168   4.296  1.00  0.00     0.003 C 
HETATM   27  C   UNL     1       5.084   8.564   5.430  1.00  0.00     0.003 C 
HETATM   28  O   UNL     1       3.701   6.032   2.813  1.00  0.00    -0.270 OA
ENDBRANCH  16  17
ENDBRANCH  15  16
ENDBRANCH   1  15
TORSDOF 5
