REMARK  5 active torsions:
REMARK  status: ('A' for Active; 'I' for Inactive)
REMARK    1  A    between atoms: N_2  and  C_4 
REMARK    2  A    between atoms: C_4  and  C_5 
REMARK    3  A    between atoms: C_5  and  N_6 
REMARK       I    between atoms: N_6  and  C_7 
REMARK    4  A    between atoms: C_7  and  C_9 
REMARK    5  A    between atoms: C_9  and  N_10 
ROOT
HETATM    1  N   UNL     1       0.803  -0.147   2.478  1.00  0.00    -0.357 N 
HETATM    2  C   UNL     1      -0.202  -1.082   2.346  1.00  0.00     0.235 C 
HETATM    3  O   UNL     1      -0.025  -2.281   2.148  1.00  0.00    -0.272 OA
HETATM    4  H   UNL     1       0.516   0.780   2.782  1.00  0.00     0.162 HD
ENDROOT
BRANCH   1   5
HETATM    5  C   UNL     1       2.245  -0.422   2.446  1.00  0.00     0.164 C 
BRANCH   5   6
HETATM    6  C   UNL     1       2.890  -0.856   1.063  1.00  0.00     0.174 C 
HETATM    7  C   UNL     1       4.460  -0.826   1.143  1.00  0.00     0.043 C 
HETATM    8  C   UNL     1       5.152  -1.426   2.370  1.00  0.00     0.003 C 
HETATM    9  C   UNL     1       5.127  -2.934   2.612  1.00  0.00     0.000 C 
HETATM   10  C   UNL     1       4.225  -3.817   1.767  1.00  0.00     0.000 C 
HETATM   11  C   UNL     1       2.763  -3.402   1.736  1.00  0.00     0.003 C 
HETATM   12  C   UNL     1       2.488  -2.317   0.692  1.00  0.00     0.043 C 
BRANCH   6  13
HETATM   13  N   UNL     1       2.395   0.076  -0.030  1.00  0.00     0.091 N 
HETATM   14  C   UNL     1       2.749   1.487   0.136  1.00  0.00     0.310 C 
HETATM   15  C   UNL     1       2.697  -0.348  -1.396  1.00  0.00     0.310 C 
ENDBRANCH   6  13
ENDBRANCH   5   6
ENDBRANCH   1   5
BRANCH   2  16
HETATM   16  C   UNL     1      -1.618  -0.547   2.567  1.00  0.00     0.234 C 
BRANCH  16  17
HETATM   17  N   UNL     1      -2.021   0.402   1.536  1.00  0.00    -0.316 N 
HETATM   18  C   UNL     1      -2.627  -0.065   0.383  1.00  0.00     0.095 A 
HETATM   19  C   UNL     1      -2.994   0.782  -0.589  1.00  0.00     0.017 A 
HETATM   20  C   UNL     1      -2.765   2.193  -0.446  1.00  0.00     0.007 A 
HETATM   21  C   UNL     1      -2.169   2.675   0.651  1.00  0.00     0.074 A 
HETATM   22  C   UNL     1      -1.727   1.748   1.730  1.00  0.00     0.247 A 
HETATM   23  O   UNL     1      -1.128   2.189   2.705  1.00  0.00    -0.268 OA
ENDBRANCH  16  17
ENDBRANCH   2  16
TORSDOF 5
