REMARK  6 active torsions:
REMARK  status: ('A' for Active; 'I' for Inactive)
REMARK    1  A    between atoms: C_2  and  O_3 
REMARK    2  A    between atoms: C_2  and  C_11 
REMARK    3  A    between atoms: O_3  and  C_4 
REMARK    4  A    between atoms: C_4  and  C_5 
REMARK       I    between atoms: C_11  and  N_13 
REMARK    5  A    between atoms: N_13  and  C_14 
REMARK    6  A    between atoms: C_16  and  C_21 
ROOT
HETATM    1  C   UNL     1       2.931   1.024   1.105  1.00  0.00     0.251 C 
HETATM    2  O   UNL     1       3.661   1.982   0.838  1.00  0.00    -0.270 OA
HETATM    3  N   UNL     1       2.520   0.893   2.410  1.00  0.00    -0.320 N 
HETATM    4  H   UNL     1       2.466   1.790   2.881  1.00  0.00     0.169 HD
ENDROOT
BRANCH   3   5
HETATM    5  C   UNL     1       1.828  -0.143   2.980  1.00  0.00     0.104 A 
HETATM    6  C   UNL     1       2.215  -1.428   2.896  1.00  0.00     0.052 A 
HETATM    7  C   UNL     1       1.395  -2.509   3.419  1.00  0.00     0.065 A 
HETATM    8  C   UNL     1       0.225  -2.200   4.006  1.00  0.00     0.107 A 
HETATM    9  N   UNL     1      -0.179  -0.893   4.135  1.00  0.00    -0.331 N 
HETATM   10  C   UNL     1       0.546   0.188   3.689  1.00  0.00     0.272 A 
HETATM   11  H   UNL     1      -1.073  -0.674   4.562  1.00  0.00     0.168 HD
HETATM   12  O   UNL     1       0.149   1.344   3.794  1.00  0.00    -0.266 OA
BRANCH   7  13
HETATM   13  C   UNL     1       1.859  -3.928   3.237  1.00  0.00     0.418 C 
HETATM   14  F   UNL     1       3.002  -4.021   2.510  1.00  0.00    -0.166 F 
HETATM   15  F   UNL     1       2.099  -4.531   4.429  1.00  0.00    -0.166 F 
HETATM   16  F   UNL     1       0.927  -4.677   2.595  1.00  0.00    -0.166 F 
ENDBRANCH   7  13
ENDBRANCH   3   5
BRANCH   1  17
HETATM   17  C   UNL     1       2.438   0.008   0.018  1.00  0.00     0.209 C 
HETATM   18  C   UNL     1       0.909  -0.122  -0.051  1.00  0.00     0.050 C 
BRANCH  17  19
HETATM   19  O   UNL     1       2.954   0.224  -1.304  1.00  0.00    -0.374 OA
BRANCH  19  20
HETATM   20  C   UNL     1       2.533   1.445  -1.915  1.00  0.00     0.200 C 
BRANCH  20  21
HETATM   21  C   UNL     1       3.206   1.649  -3.280  1.00  0.00     0.145 C 
HETATM   22  C   UNL     1       4.736   1.639  -3.236  1.00  0.00     0.034 C 
HETATM   23  C   UNL     1       5.289   2.901  -2.584  1.00  0.00     0.005 C 
HETATM   24  C   UNL     1       4.681   4.142  -3.226  1.00  0.00     0.026 C 
HETATM   25  C   UNL     1       3.163   4.055  -3.282  1.00  0.00     0.168 C 
HETATM   26  O   UNL     1       2.730   2.848  -3.915  1.00  0.00    -0.384 OA
ENDBRANCH  20  21
ENDBRANCH  19  20
ENDBRANCH  17  19
ENDBRANCH   1  17
TORSDOF 6
