REMARK  4 active torsions:
REMARK  status: ('A' for Active; 'I' for Inactive)
REMARK    1  A    between atoms: N_11  and  C_12 
REMARK    2  A    between atoms: C_12  and  C_13 
REMARK    3  A    between atoms: C_13  and  O_14 
REMARK    4  A    between atoms: C_13  and  C_15 
ROOT
HETATM    1  C   UNL     1       3.446  -0.938  -2.527  1.00  0.00     0.089 C 
HETATM    2  C   UNL     1       3.610  -0.335  -1.180  1.00  0.00     0.080 A 
HETATM    3  N   UNL     1       4.033   0.891  -0.953  1.00  0.00    -0.344 N 
ATOM      4  HN  UNL     1       4.309   1.585  -1.648  1.00  0.00     0.167 HD
HETATM    5  C   UNL     1       4.026   1.043   0.411  1.00  0.00     0.060 A 
HETATM    6  C   UNL     1       4.375   2.162   1.182  1.00  0.00     0.032 A 
HETATM    7  C   UNL     1       4.286   2.079   2.576  1.00  0.00     0.002 A 
HETATM    8  C   UNL     1       3.856   0.902   3.190  1.00  0.00     0.002 A 
HETATM    9  C   UNL     1       3.496  -0.223   2.437  1.00  0.00     0.032 A 
HETATM   10  C   UNL     1       3.591  -0.120   1.041  1.00  0.00     0.062 A 
HETATM   11  N   UNL     1       3.326  -0.985   0.003  1.00  0.00    -0.332 N 
ENDROOT
BRANCH  11  12
HETATM   12  C   UNL     1       2.740  -2.312   0.128  1.00  0.00     0.167 C 
BRANCH  12  13
HETATM   13  C   UNL     1       3.781  -3.445   0.159  1.00  0.00     0.169 C 
BRANCH  13  14
HETATM   14  O   UNL     1       4.582  -3.340   1.340  1.00  0.00    -0.389 OA
HETATM   15  H   UNL     1       4.001  -3.456   2.109  1.00  0.00     0.210 HD
ENDBRANCH  13  14
BRANCH  13  16
HETATM   16  C   UNL     1       3.224  -4.861   0.110  1.00  0.00    -0.025 A 
HETATM   17  C   UNL     1       4.126  -5.944   0.178  1.00  0.00     0.010 A 
HETATM   18  C   UNL     1       3.684  -7.270   0.114  1.00  0.00     0.004 A 
HETATM   19  C   UNL     1       2.327  -7.541  -0.026  1.00  0.00     0.042 A 
HETATM   20  C   UNL     1       1.429  -6.485  -0.094  1.00  0.00     0.117 A 
HETATM   21  F   UNL     1       0.121  -6.741  -0.231  1.00  0.00    -0.206 F 
HETATM   22  C   UNL     1       1.860  -5.160  -0.025  1.00  0.00     0.052 A 
ENDBRANCH  13  16
ENDBRANCH  12  13
ENDBRANCH  11  12
TORSDOF 4
