REMARK  8 active torsions:
REMARK  status: ('A' for Active; 'I' for Inactive)
REMARK    1  A    between atoms: O_2  and  C_3 
REMARK    2  A    between atoms: C_5  and  C_24 
REMARK    3  A    between atoms: C_8  and  O_9 
REMARK    4  A    between atoms: O_9  and  C_10 
REMARK    5  A    between atoms: C_10  and  C_11 
REMARK    6  A    between atoms: C_11  and  O_12 
REMARK    7  A    between atoms: C_11  and  C_13 
REMARK    8  A    between atoms: C_13  and  N_14 
ROOT
HETATM    1  C   UNL     1       2.430  -4.049   0.067  1.00  0.00     0.160 C 
ENDROOT
BRANCH   1   2
HETATM    2  C   UNL     1       2.541  -2.537  -0.221  1.00  0.00     0.209 C 
BRANCH   2   3
HETATM    3  O   UNL     1       3.195  -2.328  -1.471  1.00  0.00    -0.346 OA
BRANCH   3   4
HETATM    4  C   UNL     1       3.422  -1.041  -1.893  1.00  0.00     0.102 A 
HETATM    5  C   UNL     1       3.074   0.168  -1.262  1.00  0.00     0.102 A 
HETATM    6  C   UNL     1       3.420   1.382  -1.875  1.00  0.00     0.054 A 
HETATM    7  C   UNL     1       4.044   1.414  -3.132  1.00  0.00     0.012 A 
HETATM    8  C   UNL     1       4.386   0.217  -3.756  1.00  0.00     0.018 A 
HETATM    9  C   UNL     1       4.079  -0.997  -3.133  1.00  0.00     0.040 A 
BRANCH   5  10
HETATM   10  O   UNL     1       2.430   0.137  -0.052  1.00  0.00    -0.353 OA
HETATM   11  C   UNL     1       1.602   1.260   0.246  1.00  0.00     0.210 C 
ENDBRANCH   5  10
BRANCH   7  12
HETATM   12  C   UNL     1       4.307   2.745  -3.743  1.00  0.00     0.155 C 
HETATM   13  O   UNL     1       4.447   3.726  -3.015  1.00  0.00    -0.293 OA
HETATM   14  C   UNL     1       4.355   2.878  -5.241  1.00  0.00     0.096 C 
ENDBRANCH   7  12
ENDBRANCH   3   4
ENDBRANCH   2   3
ENDBRANCH   1   2
BRANCH   1  15
HETATM   15  O   UNL     1       3.734  -4.637   0.180  1.00  0.00    -0.392 OA
HETATM   16  H   UNL     1       4.329  -4.013   0.628  1.00  0.00     0.210 HD
ENDBRANCH   1  15
BRANCH   1  17
HETATM   17  C   UNL     1       1.656  -4.256   1.375  1.00  0.00     0.164 C 
BRANCH  17  18
HETATM   18  N   UNL     1       1.450  -5.647   1.723  1.00  0.00    -0.339 N 
HETATM   19  C   UNL     1       2.295  -6.386   2.506  1.00  0.00     0.184 A 
HETATM   20  N   UNL     1       1.807  -7.577   2.764  1.00  0.00    -0.350 N 
HETATM   21  C   UNL     1       0.603  -7.619   2.106  1.00  0.00     0.060 A 
ATOM     22  HN  UNL     1       2.231  -8.312   3.331  1.00  0.00     0.166 HD
HETATM   23  C   UNL     1      -0.337  -8.658   2.043  1.00  0.00     0.032 A 
HETATM   24  C   UNL     1       0.347  -6.421   1.439  1.00  0.00     0.062 A 
HETATM   25  C   UNL     1      -1.509  -8.463   1.303  1.00  0.00     0.002 A 
HETATM   26  C   UNL     1      -1.741  -7.256   0.640  1.00  0.00     0.002 A 
HETATM   27  C   UNL     1      -0.816  -6.205   0.695  1.00  0.00     0.032 A 
ENDBRANCH  17  18
ENDBRANCH   1  17
TORSDOF 8
