REMARK  4 active torsions:
REMARK  status: ('A' for Active; 'I' for Inactive)
REMARK       I    between atoms: N_2  and  C_3 
REMARK    1  A    between atoms: C_3  and  C_5 
REMARK    2  A    between atoms: N_10  and  C_11 
REMARK    3  A    between atoms: C_11  and  C_12 
REMARK       I    between atoms: C_12  and  N_14 
REMARK       I    between atoms: N_14  and  C_15 
REMARK       I    between atoms: C_15  and  N_17 
REMARK    4  A    between atoms: N_17  and  C_18 
ROOT
HETATM    1  C   UNL     1       6.275   2.421  -3.414  1.00  0.00     0.243 C 
HETATM    2  O   UNL     1       5.053   2.539  -3.306  1.00  0.00    -0.271 OA
HETATM    3  N   UNL     1       6.933   3.195  -4.354  1.00  0.00    -0.278 N 
HETATM    4  C   UNL     1       8.168   2.926  -4.875  1.00  0.00     0.323 C 
HETATM    5  O   UNL     1       8.864   1.981  -4.545  1.00  0.00    -0.247 OA
HETATM    6  N   UNL     1       8.624   3.882  -5.753  1.00  0.00    -0.338 N 
HETATM    7  H   UNL     1       6.337   3.850  -4.834  1.00  0.00     0.173 HD
HETATM    8  H   UNL     1       7.953   4.342  -6.353  1.00  0.00     0.164 HD
ENDROOT
BRANCH   1   9
HETATM    9  C   UNL     1       7.068   1.382  -2.610  1.00  0.00     0.234 C 
BRANCH   9  10
HETATM   10  N   UNL     1       7.026  -0.019  -3.041  1.00  0.00    -0.315 N 
HETATM   11  C   UNL     1       7.436  -0.961  -2.098  1.00  0.00     0.247 A 
HETATM   12  C   UNL     1       7.386  -2.383  -2.529  1.00  0.00     0.075 A 
HETATM   13  O   UNL     1       7.815  -0.698  -0.960  1.00  0.00    -0.268 OA
HETATM   14  C   UNL     1       6.990  -2.705  -3.767  1.00  0.00     0.024 A 
HETATM   15  C   UNL     1       6.609  -1.676  -4.712  1.00  0.00     0.047 A 
HETATM   16  C   UNL     1       6.673  -0.386  -4.337  1.00  0.00     0.111 A 
BRANCH  15  17
HETATM   17  C   UNL     1       6.162  -1.981  -6.111  1.00  0.00     0.252 C 
HETATM   18  N   UNL     1       5.508  -3.186  -6.246  1.00  0.00    -0.361 N 
HETATM   19  C   UNL     1       4.937  -3.591  -7.505  1.00  0.00     0.149 C 
HETATM   20  H   UNL     1       5.237  -3.697  -5.418  1.00  0.00     0.162 HD
HETATM   21  O   UNL     1       6.322  -1.192  -7.035  1.00  0.00    -0.268 OA
ENDBRANCH  15  17
ENDBRANCH   9  10
ENDBRANCH   1   9
BRANCH   6  22
HETATM   22  C   UNL     1       9.992   3.723  -6.251  1.00  0.00     0.086 C 
HETATM   23  C   UNL     1      10.609   5.053  -6.683  1.00  0.00     0.025 C 
HETATM   24  C   UNL     1      10.127   5.526  -8.049  1.00  0.00     0.002 C 
HETATM   25  C   UNL     1      10.276   4.438  -9.108  1.00  0.00     0.000 C 
HETATM   26  C   UNL     1       9.566   3.155  -8.696  1.00  0.00     0.002 C 
HETATM   27  C   UNL     1      10.077   2.653  -7.349  1.00  0.00     0.025 C 
ENDBRANCH   6  22
TORSDOF 4
