REMARK  8 active torsions:
REMARK  status: ('A' for Active; 'I' for Inactive)
REMARK    1  A    between atoms: C_2  and  O_3 
REMARK    2  A    between atoms: C_2  and  C_4 
REMARK    3  A    between atoms: C_4  and  N_5 
REMARK    4  A    between atoms: N_8  and  C_9 
REMARK    5  A    between atoms: C_9  and  C_10 
REMARK    6  A    between atoms: C_10  and  O_11 
REMARK    7  A    between atoms: C_10  and  C_12 
REMARK    8  A    between atoms: C_12  and  N_13 
ROOT
HETATM    1  C   UNL     1       7.398   0.711  -2.276  1.00  0.00     0.164 C 
ENDROOT
BRANCH   1   2
HETATM    2  C   UNL     1       6.825  -0.348  -1.294  1.00  0.00     0.305 C 
BRANCH   2   3
HETATM    3  N   UNL     1       5.353  -0.516  -1.334  1.00  0.00     0.094 N 
HETATM    4  C   UNL     1       4.593   0.705  -0.987  1.00  0.00     0.302 C 
HETATM    5  C   UNL     1       4.735   1.113   0.500  1.00  0.00     0.302 C 
HETATM    6  N   UNL     1       4.268   0.072   1.446  1.00  0.00     0.094 N 
HETATM    7  C   UNL     1       4.892  -1.222   1.087  1.00  0.00     0.302 C 
HETATM    8  C   UNL     1       4.898  -1.590  -0.422  1.00  0.00     0.302 C 
BRANCH   6   9
HETATM    9  C   UNL     1       2.794   0.048   1.457  1.00  0.00     0.303 C 
BRANCH   9  10
HETATM   10  C   UNL     1       2.092  -0.949   2.403  1.00  0.00     0.142 C 
HETATM   11  C   UNL     1       2.477  -0.779   3.865  1.00  0.00     0.041 C 
BRANCH  10  12
HETATM   12  O   UNL     1       0.672  -0.792   2.282  1.00  0.00    -0.394 OA
HETATM   13  H   UNL     1       0.470   0.160   2.297  1.00  0.00     0.210 HD
ENDBRANCH  10  12
ENDBRANCH   9  10
ENDBRANCH   6   9
ENDBRANCH   2   3
ENDBRANCH   1   2
BRANCH   1  14
HETATM   14  O   UNL     1       6.948   2.031  -1.932  1.00  0.00    -0.392 OA
HETATM   15  H   UNL     1       7.156   2.201  -0.999  1.00  0.00     0.210 HD
ENDBRANCH   1  14
BRANCH   1  16
HETATM   16  C   UNL     1       8.935   0.732  -2.243  1.00  0.00     0.163 C 
BRANCH  16  17
HETATM   17  N   UNL     1       9.449   1.691  -3.204  1.00  0.00    -0.339 N 
HETATM   18  C   UNL     1       9.640   3.026  -2.966  1.00  0.00     0.184 A 
HETATM   19  N   UNL     1       9.948   3.678  -4.063  1.00  0.00    -0.350 N 
HETATM   20  C   UNL     1       9.957   2.724  -5.051  1.00  0.00     0.060 A 
ATOM     21  HN  UNL     1      10.139   4.675  -4.160  1.00  0.00     0.166 HD
HETATM   22  C   UNL     1      10.184   2.866  -6.425  1.00  0.00     0.039 A 
HETATM   23  C   UNL     1       9.687   1.459  -4.537  1.00  0.00     0.062 A 
HETATM   24  C   UNL     1      10.176   1.727  -7.257  1.00  0.00    -0.054 A 
HETATM   25  C   UNL     1      10.457   1.918  -8.722  1.00  0.00     0.049 C 
HETATM   26  C   UNL     1       9.927   0.452  -6.704  1.00  0.00    -0.054 A 
HETATM   27  C   UNL     1       9.931  -0.812  -7.524  1.00  0.00     0.049 C 
HETATM   28  C   UNL     1       9.660   0.314  -5.328  1.00  0.00     0.039 A 
ENDBRANCH  16  17
ENDBRANCH   1  16
TORSDOF 8
