REMARK  2 active torsions:
REMARK  status: ('A' for Active; 'I' for Inactive)
REMARK    1  A    between atoms: C_5  and  N_8 
REMARK       I    between atoms: N_8  and  C_9 
REMARK       I    between atoms: C_9  and  N_11 
REMARK    2  A    between atoms: N_11  and  C_12 
ROOT
HETATM    1  N   UNL     1       4.601  -0.794  -3.015  1.00  0.00    -0.338 N 
HETATM    2  C   UNL     1       5.182  -0.328  -4.174  1.00  0.00     0.321 C 
HETATM    3  O   UNL     1       4.540   0.151  -5.096  1.00  0.00    -0.247 OA
HETATM    4  N   UNL     1       6.543  -0.553  -4.177  1.00  0.00    -0.305 N 
HETATM    5  H   UNL     1       5.155  -0.655  -2.180  1.00  0.00     0.164 HD
HETATM    6  H   UNL     1       6.813  -1.409  -3.714  1.00  0.00     0.171 HD
ENDROOT
BRANCH   1   7
HETATM    7  C   UNL     1       3.146  -0.762  -2.870  1.00  0.00     0.089 C 
HETATM    8  C   UNL     1       2.624   0.628  -2.492  1.00  0.00     0.055 C 
HETATM    9  C   UNL     1       2.890   0.957  -1.023  1.00  0.00     0.274 C 
HETATM   10  N   UNL     1       2.414  -0.065  -0.083  1.00  0.00     0.084 N 
HETATM   11  C   UNL     1       0.958  -0.050   0.059  1.00  0.00     0.309 C 
HETATM   12  C   UNL     1       2.926  -1.396  -0.423  1.00  0.00     0.274 C 
HETATM   13  C   UNL     1       2.672  -1.817  -1.868  1.00  0.00     0.055 C 
ENDBRANCH   1   7
BRANCH   4  14
HETATM   14  C   UNL     1       7.314  -0.172  -5.268  1.00  0.00     0.092 A 
HETATM   15  C   UNL     1       7.334   1.037  -6.017  1.00  0.00     0.058 A 
HETATM   16  C   UNL     1       6.594   2.303  -5.802  1.00  0.00     0.072 C 
HETATM   17  N   UNL     1       8.232   0.971  -7.011  1.00  0.00    -0.263 N 
HETATM   18  O   UNL     1       8.803  -0.283  -6.925  1.00  0.00    -0.240 OA
ATOM     19  HN  UNL     1       8.449   1.699  -7.692  1.00  0.00     0.194 HD
HETATM   20  C   UNL     1       8.265  -0.959  -5.876  1.00  0.00     0.101 A 
HETATM   21  C   UNL     1       8.732  -2.344  -5.688  1.00  0.00     0.081 C 
ENDBRANCH   4  14
TORSDOF 2
