REMARK  6 active torsions:
REMARK  status: ('A' for Active; 'I' for Inactive)
REMARK    1  A    between atoms: C_2  and  C_3 
REMARK    2  A    between atoms: C_3  and  C_5 
REMARK    3  A    between atoms: C_3  and  N_18 
REMARK    4  A    between atoms: C_5  and  N_6 
REMARK       I    between atoms: N_6  and  C_7 
REMARK    5  A    between atoms: C_7  and  C_9 
REMARK    6  A    between atoms: C_9  and  N_10 
ROOT
HETATM    1  N   UNL     1       2.600  -3.815  -0.091  1.00  0.00    -0.357 N 
HETATM    2  C   UNL     1       1.643  -4.762   0.220  1.00  0.00     0.236 C 
HETATM    3  O   UNL     1       0.439  -4.512   0.275  1.00  0.00    -0.272 OA
HETATM    4  H   UNL     1       3.561  -4.100  -0.254  1.00  0.00     0.162 HD
ENDROOT
BRANCH   1   5
HETATM    5  C   UNL     1       2.234  -2.435  -0.387  1.00  0.00     0.164 C 
BRANCH   5   6
HETATM    6  C   UNL     1       2.936  -1.341   0.508  1.00  0.00     0.171 C 
HETATM    7  C   UNL     1       2.596  -1.695   1.983  1.00  0.00     0.051 C 
BRANCH   6   8
HETATM    8  C   UNL     1       2.307   0.046   0.169  1.00  0.00     0.038 C 
HETATM    9  C   UNL     1       0.796   0.207   0.318  1.00  0.00     0.007 C 
ENDBRANCH   6   8
BRANCH   6  10
HETATM   10  N   UNL     1       4.432  -1.362   0.353  1.00  0.00     0.103 N 
HETATM   11  C   UNL     1       5.230  -0.481   1.242  1.00  0.00     0.299 C 
HETATM   12  C   UNL     1       5.455   0.955   0.729  1.00  0.00     0.198 C 
HETATM   13  O   UNL     1       6.049   0.954  -0.572  1.00  0.00    -0.388 OA
HETATM   14  C   UNL     1       5.263   0.201  -1.500  1.00  0.00     0.198 C 
HETATM   15  C   UNL     1       4.998  -1.237  -1.009  1.00  0.00     0.299 C 
ENDBRANCH   6  10
ENDBRANCH   5   6
ENDBRANCH   1   5
BRANCH   2  16
HETATM   16  C   UNL     1       2.161  -6.180   0.437  1.00  0.00     0.235 C 
BRANCH  16  17
HETATM   17  N   UNL     1       2.039  -6.997  -0.771  1.00  0.00    -0.301 N 
HETATM   18  C   UNL     1       0.843  -7.620  -1.064  1.00  0.00     0.102 C 
HETATM   19  C   UNL     1       0.720  -8.453  -2.101  1.00  0.00     0.092 C 
HETATM   20  C   UNL     1       1.900  -8.719  -2.939  1.00  0.00     0.250 C 
HETATM   21  O   UNL     1       1.874  -9.568  -3.822  1.00  0.00    -0.268 OA
HETATM   22  N   UNL     1       3.009  -7.966  -2.659  1.00  0.00    -0.275 N 
HETATM   23  C   UNL     1       3.149  -7.121  -1.591  1.00  0.00     0.329 C 
HETATM   24  H   UNL     1       3.824  -8.127  -3.226  1.00  0.00     0.173 HD
HETATM   25  O   UNL     1       4.211  -6.532  -1.391  1.00  0.00    -0.246 OA
ENDBRANCH  16  17
ENDBRANCH   2  16
TORSDOF 6
