REMARK  4 active torsions:
REMARK  status: ('A' for Active; 'I' for Inactive)
REMARK    1  A    between atoms: N_2  and  C_4 
REMARK    2  A    between atoms: C_7  and  N_8 
REMARK       I    between atoms: N_8  and  C_9 
REMARK       I    between atoms: C_9  and  N_11 
REMARK    3  A    between atoms: N_11  and  C_12 
REMARK    4  A    between atoms: N_16  and  S_18 
ROOT
HETATM    1  N   UNL     1       5.346  -4.651  -2.512  1.00  0.00    -0.308 N 
HETATM    2  C   UNL     1       4.685  -5.839  -2.281  1.00  0.00     0.321 C 
HETATM    3  O   UNL     1       3.972  -6.086  -1.314  1.00  0.00    -0.247 OA
HETATM    4  N   UNL     1       4.922  -6.794  -3.247  1.00  0.00    -0.337 N 
HETATM    5  H   UNL     1       6.151  -4.694  -3.122  1.00  0.00     0.170 HD
HETATM    6  H   UNL     1       5.001  -6.423  -4.189  1.00  0.00     0.164 HD
ENDROOT
BRANCH   1   7
HETATM    7  C   UNL     1       5.217  -3.522  -1.661  1.00  0.00     0.051 A 
HETATM    8  C   UNL     1       4.115  -3.332  -0.841  1.00  0.00     0.035 A 
HETATM    9  C   UNL     1       4.083  -2.272   0.063  1.00  0.00     0.050 A 
HETATM   10  C   UNL     1       5.143  -1.372   0.144  1.00  0.00     0.102 A 
HETATM   11  N   UNL     1       6.195  -1.505  -0.703  1.00  0.00    -0.350 N 
HETATM   12  C   UNL     1       6.206  -2.551  -1.581  1.00  0.00     0.119 A 
ATOM     13  HN  UNL     1       6.964  -0.835  -0.684  1.00  0.00     0.166 HD
BRANCH  10  14
HETATM   14  N   UNL     1       5.150  -0.366   1.109  1.00  0.00    -0.376 N 
HETATM   15  C   UNL     1       6.295   0.531   1.104  1.00  0.00     0.150 C 
HETATM   16  C   UNL     1       3.885   0.144   1.613  1.00  0.00     0.150 C 
ENDBRANCH  10  14
ENDBRANCH   1   7
BRANCH   4  17
HETATM   17  C   UNL     1       4.127  -8.029  -3.147  1.00  0.00     0.104 C 
HETATM   18  C   UNL     1       4.832  -9.242  -3.752  1.00  0.00     0.028 C 
HETATM   19  C   UNL     1       4.904  -9.179  -5.275  1.00  0.00     0.023 C 
HETATM   20  C   UNL     1       3.555  -8.860  -5.919  1.00  0.00     0.135 C 
HETATM   21  N   UNL     1       2.952  -7.662  -5.281  1.00  0.00    -0.309 N 
HETATM   22  C   UNL     1       2.753  -7.834  -3.810  1.00  0.00     0.160 C 
BRANCH  21  23
HETATM   23  S   UNL     1       1.674  -6.915  -6.115  1.00  0.00     0.224 S 
HETATM   24  O   UNL     1       1.330  -5.700  -5.408  1.00  0.00    -0.206 OA
HETATM   25  O   UNL     1       2.025  -6.885  -7.518  1.00  0.00    -0.206 OA
HETATM   26  C   UNL     1       0.341  -8.081  -5.903  1.00  0.00     0.186 C 
ENDBRANCH  21  23
ENDBRANCH   4  17
TORSDOF 4
