REMARK  7 active torsions:
REMARK  status: ('A' for Active; 'I' for Inactive)
REMARK    1  A    between atoms: S_2  and  N_5 
REMARK    2  A    between atoms: N_5  and  C_6 
REMARK    3  A    between atoms: C_6  and  C_7 
REMARK    4  A    between atoms: C_7  and  C_8 
REMARK    5  A    between atoms: C_8  and  N_9 
REMARK       I    between atoms: N_9  and  C_10 
REMARK    6  A    between atoms: C_10  and  C_12 
REMARK    7  A    between atoms: C_18  and  N_19 
ROOT
HETATM    1  C   UNL     1       9.147  -5.499   2.809  1.00  0.00     0.075 A 
HETATM    2  C   UNL     1       9.689  -5.629   4.107  1.00  0.00     0.022 A 
HETATM    3  C   UNL     1       9.972  -6.879   4.630  1.00  0.00     0.018 A 
HETATM    4  C   UNL     1       9.668  -7.969   3.850  1.00  0.00     0.089 A 
HETATM    5  N   UNL     1       9.145  -7.878   2.608  1.00  0.00    -0.352 N 
ATOM      6  HN  UNL     1       8.947  -8.728   2.080  1.00  0.00     0.166 HD
HETATM    7  C   UNL     1       8.879  -6.658   2.053  1.00  0.00     0.119 A 
ENDROOT
BRANCH   1   8
HETATM    8  C   UNL     1       8.761  -4.123   2.389  1.00  0.00     0.255 C 
HETATM    9  N   UNL     1       9.601  -3.096   2.792  1.00  0.00    -0.357 N 
HETATM   10  H   UNL     1      10.473  -3.310   3.261  1.00  0.00     0.162 HD
HETATM   11  O   UNL     1       7.721  -3.904   1.778  1.00  0.00    -0.268 OA
BRANCH   9  12
HETATM   12  C   UNL     1       9.311  -1.705   2.494  1.00  0.00     0.124 C 
BRANCH  12  13
HETATM   13  C   UNL     1       8.007  -1.192   3.110  1.00  0.00     0.035 C 
BRANCH  13  14
HETATM   14  C   UNL     1       7.873  -1.467   4.604  1.00  0.00     0.105 C 
BRANCH  14  15
HETATM   15  N   UNL     1       8.847  -0.664   5.368  1.00  0.00    -0.220 NA
HETATM   16  H   UNL     1       9.814  -0.721   5.046  1.00  0.00     0.139 HD
BRANCH  15  17
HETATM   17  S   UNL     1       8.836  -0.847   7.045  1.00  0.00     0.205 S 
HETATM   18  C   UNL     1       7.311  -0.053   7.501  1.00  0.00     0.179 C 
HETATM   19  O   UNL     1       9.943  -0.058   7.531  1.00  0.00    -0.212 OA
HETATM   20  O   UNL     1       8.751  -2.264   7.319  1.00  0.00    -0.212 OA
ENDBRANCH  15  17
ENDBRANCH  14  15
ENDBRANCH  13  14
ENDBRANCH  12  13
ENDBRANCH   9  12
ENDBRANCH   1   8
BRANCH   7  21
HETATM   21  N   UNL     1       8.436  -6.732   0.757  1.00  0.00    -0.362 N 
HETATM   22  C   UNL     1       7.570  -7.858   0.365  1.00  0.00     0.150 C 
HETATM   23  C   UNL     1       7.989  -8.376  -1.018  1.00  0.00     0.187 C 
HETATM   24  O   UNL     1       7.976  -7.327  -2.001  1.00  0.00    -0.388 OA
HETATM   25  C   UNL     1       8.882  -6.281  -1.615  1.00  0.00     0.187 C 
HETATM   26  C   UNL     1       8.515  -5.670  -0.250  1.00  0.00     0.150 C 
ENDBRANCH   7  21
TORSDOF 7
