REMARK  4 active torsions:
REMARK  status: ('A' for Active; 'I' for Inactive)
REMARK    1  A    between atoms: C_2  and  C_3 
REMARK    2  A    between atoms: C_2  and  C_14 
REMARK    3  A    between atoms: C_3  and  N_4 
REMARK       I    between atoms: N_4  and  C_5 
REMARK       I    between atoms: C_5  and  N_7 
REMARK    4  A    between atoms: N_7  and  C_8 
ROOT
HETATM    1  N   UNL     1       2.195  -2.304   1.103  1.00  0.00    -0.342 N 
HETATM    2  C   UNL     1       3.015  -3.336   1.486  1.00  0.00     0.316 C 
HETATM    3  O   UNL     1       4.126  -3.526   0.988  1.00  0.00    -0.247 OA
HETATM    4  N   UNL     1       2.478  -4.158   2.449  1.00  0.00    -0.338 N 
HETATM    5  H   UNL     1       1.536  -1.968   1.791  1.00  0.00     0.164 HD
HETATM    6  H   UNL     1       1.484  -4.106   2.592  1.00  0.00     0.164 HD
ENDROOT
BRANCH   1   7
HETATM    7  C   UNL     1       2.727  -1.368   0.117  1.00  0.00     0.135 C 
BRANCH   7   8
HETATM    8  C   UNL     1       1.787  -0.291  -0.443  1.00  0.00     0.057 C 
HETATM    9  C   UNL     1       1.329   0.698   0.625  1.00  0.00     0.018 C 
BRANCH   8  10
HETATM   10  C   UNL     1       0.625  -0.877  -1.204  1.00  0.00     0.056 A 
HETATM   11  N   UNL     1      -0.601  -0.997  -0.737  1.00  0.00    -0.362 N 
HETATM   12  C   UNL     1      -1.415  -1.561  -1.699  1.00  0.00     0.102 A 
ATOM     13  HN  UNL     1      -0.904  -0.715   0.196  1.00  0.00     0.165 HD
HETATM   14  C   UNL     1      -0.804  -1.877  -2.894  1.00  0.00    -0.004 A 
HETATM   15  C   UNL     1      -1.371  -2.525  -4.104  1.00  0.00     0.058 C 
HETATM   16  S   UNL     1       0.840  -1.405  -2.833  1.00  0.00    -0.080 SA
ENDBRANCH   8  10
ENDBRANCH   7   8
ENDBRANCH   1   7
BRANCH   4  17
HETATM   17  C   UNL     1       3.148  -5.438   2.722  1.00  0.00     0.095 C 
HETATM   18  C   UNL     1       2.939  -6.432   1.567  1.00  0.00     0.027 C 
HETATM   19  C   UNL     1       1.490  -6.899   1.440  1.00  0.00     0.012 C 
HETATM   20  C   UNL     1       1.056  -7.722   2.641  1.00  0.00     0.074 C 
HETATM   21  S   UNL     1       1.061  -6.716   4.157  1.00  0.00    -0.167 SA
HETATM   22  C   UNL     1       2.759  -6.050   4.077  1.00  0.00     0.099 C 
ENDBRANCH   4  17
TORSDOF 4
