REMARK  4 active torsions:
REMARK  status: ('A' for Active; 'I' for Inactive)
REMARK    1  A    between atoms: O_2  and  C_3 
REMARK    2  A    between atoms: C_5  and  N_6 
REMARK       I    between atoms: N_6  and  C_7 
REMARK       I    between atoms: C_7  and  N_9 
REMARK    3  A    between atoms: N_9  and  C_10 
REMARK    4  A    between atoms: C_10  and  C_12 
ROOT
HETATM    1  N   UNL     1       6.765  -2.081   1.384  1.00  0.00    -0.295 N 
HETATM    2  C   UNL     1       7.391  -0.869   1.341  1.00  0.00     0.322 C 
HETATM    3  O   UNL     1       6.751   0.127   1.015  1.00  0.00    -0.247 OA
HETATM    4  N   UNL     1       8.707  -0.848   1.669  1.00  0.00    -0.338 N 
HETATM    5  H   UNL     1       5.797  -2.023   1.101  1.00  0.00     0.172 HD
HETATM    6  H   UNL     1       9.103  -1.741   1.947  1.00  0.00     0.164 HD
ENDROOT
BRANCH   1   7
HETATM    7  C   UNL     1       7.262  -3.324   1.799  1.00  0.00     0.114 A 
HETATM    8  C   UNL     1       6.409  -4.404   1.761  1.00  0.00     0.104 A 
HETATM    9  C   UNL     1       6.939  -5.604   2.174  1.00  0.00     0.146 A 
HETATM   10  N   UNL     1       8.199  -5.757   2.611  1.00  0.00    -0.333 N 
HETATM   11  C   UNL     1       8.940  -4.647   2.612  1.00  0.00     0.183 A 
ATOM     12  HN  UNL     1       8.564  -6.658   2.920  1.00  0.00     0.168 HD
HETATM   13  N   UNL     1       8.537  -3.430   2.223  1.00  0.00    -0.338 N 
ATOM     14  HN  UNL     1       9.163  -2.625   2.246  1.00  0.00     0.168 HD
BRANCH   9  15
HETATM   15  O   UNL     1       6.097  -6.697   2.111  1.00  0.00    -0.341 OA
HETATM   16  C   UNL     1       6.723  -7.914   2.510  1.00  0.00     0.211 C 
ENDBRANCH   9  15
ENDBRANCH   1   7
BRANCH   4  17
HETATM   17  C   UNL     1       9.500   0.351   1.832  1.00  0.00     0.086 C 
HETATM   18  C   UNL     1       9.837   0.548   3.310  1.00  0.00     0.032 C 
BRANCH  17  19
HETATM   19  C   UNL     1      10.758   0.203   1.017  1.00  0.00     0.008 A 
HETATM   20  C   UNL     1      11.698   1.373   0.851  1.00  0.00     0.007 A 
HETATM   21  C   UNL     1      10.889   0.893  -0.320  1.00  0.00     0.007 A 
ENDBRANCH  17  19
ENDBRANCH   4  17
TORSDOF 4
