REMARK  3 active torsions:
REMARK  status: ('A' for Active; 'I' for Inactive)
REMARK    1  A    between atoms: C_2  and  C_4 
REMARK       I    between atoms: N_10  and  C_11 
REMARK       I    between atoms: C_11  and  N_13 
REMARK    2  A    between atoms: N_13  and  C_14 
REMARK    3  A    between atoms: C_14  and  C_15 
ROOT
HETATM    1  C   UNL     1       5.753   0.602   6.370  1.00  0.00     0.073 A 
HETATM    2  N   UNL     1       5.618  -0.285   7.336  1.00  0.00    -0.296 N 
ATOM      3  HN  UNL     1       5.882  -0.115   8.306  1.00  0.00     0.187 HD
HETATM    4  N   UNL     1       5.081  -1.463   6.883  1.00  0.00    -0.279 N 
ATOM      5  HN  UNL     1       4.903  -2.274   7.475  1.00  0.00     0.189 HD
HETATM    6  C   UNL     1       4.823  -1.422   5.598  1.00  0.00     0.169 A 
HETATM    7  N   UNL     1       4.336  -2.423   4.809  1.00  0.00    -0.288 N 
HETATM    8  C   UNL     1       4.190  -3.719   5.206  1.00  0.00     0.322 C 
HETATM    9  O   UNL     1       3.756  -4.550   4.412  1.00  0.00    -0.247 OA
HETATM   10  N   UNL     1       4.591  -4.038   6.472  1.00  0.00    -0.342 N 
HETATM   11  S   UNL     1       5.177   0.060   4.836  1.00  0.00    -0.037 SA
HETATM   12  H   UNL     1       4.130  -2.229   3.840  1.00  0.00     0.172 HD
HETATM   13  H   UNL     1       4.791  -3.272   7.111  1.00  0.00     0.164 HD
ENDROOT
BRANCH  10  14
HETATM   14  C   UNL     1       4.585  -5.391   6.967  1.00  0.00     0.129 C 
BRANCH  14  15
HETATM   15  C   UNL     1       5.211  -5.382   8.349  1.00  0.00     0.003 C 
HETATM   16  C   UNL     1       5.232  -6.772   9.031  1.00  0.00     0.006 C 
HETATM   17  C   UNL     1       4.933  -6.063  10.364  1.00  0.00     0.001 C 
HETATM   18  C   UNL     1       4.338  -4.901   9.542  1.00  0.00     0.006 C 
ENDBRANCH  14  15
ENDBRANCH  10  14
BRANCH   1  19
HETATM   19  C   UNL     1       6.348   1.966   6.565  1.00  0.00     0.036 C 
HETATM   20  C   UNL     1       5.496   2.767   7.547  1.00  0.00     0.016 C 
HETATM   21  C   UNL     1       7.784   1.844   7.084  1.00  0.00     0.016 C 
ENDBRANCH   1  19
TORSDOF 3
