REMARK  6 active torsions:
REMARK  status: ('A' for Active; 'I' for Inactive)
REMARK    1  A    between atoms: C_2  and  C_4 
REMARK    2  A    between atoms: C_4  and  C_7 
REMARK    3  A    between atoms: C_7  and  O_8 
REMARK    4  A    between atoms: O_8  and  C_9 
REMARK    5  A    between atoms: C_12  and  N_13 
REMARK       I    between atoms: N_13  and  C_14 
REMARK    6  A    between atoms: C_14  and  C_16 
ROOT
HETATM    1  C   UNL     1       6.224   2.104   2.144  1.00  0.00     0.142 A 
HETATM    2  C   UNL     1       6.740   3.384   2.138  1.00  0.00     0.058 A 
HETATM    3  C   UNL     1       8.123   3.542   2.197  1.00  0.00     0.035 A 
HETATM    4  C   UNL     1       8.952   2.425   2.239  1.00  0.00     0.050 A 
HETATM    5  C   UNL     1       8.327   1.178   2.203  1.00  0.00     0.119 A 
HETATM    6  N   UNL     1       6.981   0.987   2.168  1.00  0.00    -0.345 N 
ATOM      7  HN  UNL     1       6.568   0.054   2.160  1.00  0.00     0.167 HD
ENDROOT
BRANCH   4   8
HETATM    8  N   UNL     1      10.362   2.505   2.291  1.00  0.00    -0.324 N 
HETATM    9  C   UNL     1      11.101   3.654   2.545  1.00  0.00     0.253 C 
HETATM   10  O   UNL     1      10.634   4.733   2.898  1.00  0.00    -0.270 OA
HETATM   11  H   UNL     1      10.899   1.651   2.167  1.00  0.00     0.169 HD
BRANCH   9  12
HETATM   12  C   UNL     1      12.623   3.422   2.470  1.00  0.00     0.237 C 
HETATM   13  C   UNL     1      13.357   4.731   2.136  1.00  0.00     0.209 C 
HETATM   14  O   UNL     1      13.269   5.049   0.739  1.00  0.00    -0.386 OA
HETATM   15  C   UNL     1      13.780   3.971  -0.048  1.00  0.00     0.193 C 
HETATM   16  C   UNL     1      12.989   2.698   0.233  1.00  0.00     0.195 C 
HETATM   17  O   UNL     1      13.031   2.339   1.623  1.00  0.00    -0.372 OA
ENDBRANCH   9  12
ENDBRANCH   4   8
BRANCH   1  18
HETATM   18  O   UNL     1       4.852   2.004   2.064  1.00  0.00    -0.330 OA
BRANCH  18  19
HETATM   19  C   UNL     1       4.354   0.773   2.606  1.00  0.00     0.262 C 
BRANCH  19  20
HETATM   20  C   UNL     1       2.834   0.775   2.524  1.00  0.00     0.322 C 
HETATM   21  F   UNL     1       2.433   0.878   1.225  1.00  0.00    -0.198 F 
HETATM   22  F   UNL     1       2.327   1.869   3.160  1.00  0.00    -0.198 F 
BRANCH  20  23
HETATM   23  C   UNL     1       2.242  -0.483   3.136  1.00  0.00     0.427 C 
HETATM   24  F   UNL     1       2.712  -1.594   2.511  1.00  0.00    -0.208 F 
HETATM   25  F   UNL     1       2.607  -0.602   4.441  1.00  0.00    -0.208 F 
ENDBRANCH  20  23
ENDBRANCH  19  20
ENDBRANCH  18  19
ENDBRANCH   1  18
TORSDOF 6
