REMARK  4 active torsions:
REMARK  status: ('A' for Active; 'I' for Inactive)
REMARK    1  A    between atoms: S_2  and  N_5 
REMARK    2  A    between atoms: N_5  and  C_6 
REMARK    3  A    between atoms: C_6  and  C_7 
REMARK    4  A    between atoms: C_7  and  C_8 
ROOT
HETATM    1  C   UNL     1       7.007  -2.045   2.175  1.00  0.00     0.019 A 
HETATM    2  C   UNL     1       7.667  -0.841   2.291  1.00  0.00     0.078 A 
HETATM    3  S   UNL     1       9.352  -1.095   2.301  1.00  0.00    -0.064 SA
HETATM    4  C   UNL     1       9.111  -2.810   2.161  1.00  0.00     0.146 A 
HETATM    5  N   UNL     1       7.841  -3.154   2.098  1.00  0.00    -0.340 N 
ATOM      6  HN  UNL     1       7.511  -4.115   2.004  1.00  0.00     0.168 HD
HETATM    7  N   UNL     1      10.144  -3.687   2.152  1.00  0.00    -0.361 N 
HETATM    8  C   UNL     1      11.547  -3.322   2.190  1.00  0.00     0.125 C 
HETATM    9  C   UNL     1      12.298  -4.650   2.302  1.00  0.00     0.021 C 
HETATM   10  C   UNL     1      11.232  -5.675   2.666  1.00  0.00     0.021 C 
HETATM   11  C   UNL     1       9.959  -5.120   2.033  1.00  0.00     0.125 C 
ENDROOT
BRANCH   1  12
HETATM   12  C   UNL     1       5.525  -2.240   2.153  1.00  0.00     0.073 C 
BRANCH  12  13
HETATM   13  C   UNL     1       5.043  -2.999   3.388  1.00  0.00     0.110 C 
BRANCH  13  14
HETATM   14  N   UNL     1       3.574  -3.192   3.342  1.00  0.00    -0.220 NA
HETATM   15  H   UNL     1       3.032  -2.336   3.202  1.00  0.00     0.139 HD
BRANCH  14  16
HETATM   16  S   UNL     1       2.891  -4.058   4.618  1.00  0.00     0.205 S 
HETATM   17  C   UNL     1       3.482  -5.715   4.323  1.00  0.00     0.179 C 
HETATM   18  O   UNL     1       1.462  -4.026   4.400  1.00  0.00    -0.212 OA
HETATM   19  O   UNL     1       3.476  -3.558   5.842  1.00  0.00    -0.212 OA
ENDBRANCH  14  16
ENDBRANCH  13  14
ENDBRANCH  12  13
ENDBRANCH   1  12
TORSDOF 4
