REMARK  3 active torsions:
REMARK  status: ('A' for Active; 'I' for Inactive)
REMARK    1  A    between atoms: C_4  and  N_5 
REMARK       I    between atoms: N_5  and  C_6 
REMARK       I    between atoms: C_6  and  N_8 
REMARK    2  A    between atoms: N_8  and  C_9 
REMARK    3  A    between atoms: N_13  and  S_15 
ROOT
HETATM    1  N   UNL     1       7.098   4.847   1.230  1.00  0.00    -0.308 N 
HETATM    2  C   UNL     1       6.103   5.714   0.822  1.00  0.00     0.321 C 
HETATM    3  O   UNL     1       5.885   6.820   1.296  1.00  0.00    -0.247 OA
HETATM    4  N   UNL     1       5.329   5.197  -0.194  1.00  0.00    -0.337 N 
HETATM    5  H   UNL     1       7.354   4.126   0.572  1.00  0.00     0.170 HD
HETATM    6  H   UNL     1       5.235   4.192  -0.133  1.00  0.00     0.164 HD
ENDROOT
BRANCH   1   7
HETATM    7  C   UNL     1       7.929   5.044   2.317  1.00  0.00     0.052 A 
HETATM    8  C   UNL     1       7.672   5.912   3.312  1.00  0.00     0.123 A 
HETATM    9  N   UNL     1       8.539   6.108   4.373  1.00  0.00    -0.327 N 
HETATM   10  C   UNL     1       8.193   7.057   5.415  1.00  0.00     0.159 C 
HETATM   11  C   UNL     1       9.751   5.433   4.474  1.00  0.00     0.247 A 
HETATM   12  C   UNL     1      10.027   4.447   3.394  1.00  0.00     0.077 A 
HETATM   13  O   UNL     1      10.568   5.591   5.376  1.00  0.00    -0.268 OA
HETATM   14  C   UNL     1       9.151   4.264   2.394  1.00  0.00     0.036 A 
ENDBRANCH   1   7
BRANCH   4  15
HETATM   15  C   UNL     1       4.097   5.917  -0.563  1.00  0.00     0.100 C 
HETATM   16  C   UNL     1       3.234   5.059  -1.480  1.00  0.00     0.028 C 
HETATM   17  C   UNL     1       3.856   5.015  -2.864  1.00  0.00     0.018 C 
HETATM   18  C   UNL     1       3.814   6.402  -3.476  1.00  0.00     0.107 C 
HETATM   19  N   UNL     1       4.536   7.416  -2.650  1.00  0.00    -0.209 NA
HETATM   20  C   UNL     1       4.299   7.335  -1.162  1.00  0.00     0.132 C 
BRANCH  19  21
HETATM   21  S   UNL     1       4.223   8.995  -3.292  1.00  0.00     0.207 S 
HETATM   22  O   UNL     1       4.621   8.983  -4.684  1.00  0.00    -0.212 OA
HETATM   23  O   UNL     1       2.869   9.348  -2.916  1.00  0.00    -0.212 OA
HETATM   24  C   UNL     1       5.349  10.048  -2.398  1.00  0.00     0.180 C 
ENDBRANCH  19  21
ENDBRANCH   4  15
TORSDOF 3
