REMARK  2 active torsions:
REMARK  status: ('A' for Active; 'I' for Inactive)
REMARK    1  A    between atoms: C_4  and  N_5 
REMARK       I    between atoms: N_5  and  C_6 
REMARK       I    between atoms: C_6  and  N_8 
REMARK    2  A    between atoms: N_8  and  C_9 
ROOT
HETATM    1  N   UNL     1       6.934   2.084  -1.829  1.00  0.00    -0.293 N 
HETATM    2  C   UNL     1       7.227   3.382  -1.512  1.00  0.00     0.322 C 
HETATM    3  O   UNL     1       7.992   4.027  -2.224  1.00  0.00    -0.247 OA
HETATM    4  N   UNL     1       6.683   3.858  -0.360  1.00  0.00    -0.338 N 
HETATM    5  H   UNL     1       7.420   1.738  -2.644  1.00  0.00     0.172 HD
HETATM    6  H   UNL     1       5.973   3.275   0.074  1.00  0.00     0.164 HD
ENDROOT
BRANCH   1   7
HETATM    7  C   UNL     1       6.216   1.186  -1.063  1.00  0.00     0.132 A 
HETATM    8  C   UNL     1       6.180  -0.213  -1.270  1.00  0.00     0.084 A 
HETATM    9  C   UNL     1       5.448  -0.696  -0.211  1.00  0.00     0.076 A 
HETATM   10  C   UNL     1       5.084  -2.031   0.284  1.00  0.00     0.079 C 
HETATM   11  O   UNL     1       5.008   0.344   0.538  1.00  0.00    -0.241 OA
HETATM   12  N   UNL     1       5.482   1.520   0.007  1.00  0.00    -0.245 N 
ATOM     13  HN  UNL     1       5.309   2.462   0.358  1.00  0.00     0.196 HD
ENDBRANCH   1   7
BRANCH   4  14
HETATM   14  C   UNL     1       7.011   5.116   0.268  1.00  0.00     0.086 C 
HETATM   15  C   UNL     1       6.396   6.300  -0.482  1.00  0.00     0.025 C 
HETATM   16  C   UNL     1       6.738   7.616   0.210  1.00  0.00     0.002 C 
HETATM   17  C   UNL     1       6.319   7.614   1.678  1.00  0.00     0.000 C 
HETATM   18  C   UNL     1       6.869   6.407   2.434  1.00  0.00     0.002 C 
HETATM   19  C   UNL     1       6.528   5.103   1.724  1.00  0.00     0.025 C 
ENDBRANCH   4  14
TORSDOF 2
