REMARK  7 active torsions:
REMARK  status: ('A' for Active; 'I' for Inactive)
REMARK    1  A    between atoms: N_2  and  C_16 
REMARK    2  A    between atoms: C_3  and  N_7 
REMARK    3  A    between atoms: N_7  and  C_9 
REMARK    4  A    between atoms: N_7  and  C_21 
REMARK    5  A    between atoms: C_16  and  C_18 
REMARK    6  A    between atoms: C_18  and  O_25 
REMARK    7  A    between atoms: C_21  and  C_22 
ROOT
HETATM    1  N   UNL     1      -3.376  -5.511  -1.814  1.00  0.00    -0.197 NA
HETATM    2  C   UNL     1      -3.248  -4.780  -0.917  1.00  0.00     0.065 C 
HETATM    3  C   UNL     1      -3.157  -3.891   0.252  1.00  0.00     0.106 C 
HETATM    4  C   UNL     1      -3.973  -4.511   1.391  1.00  0.00     0.027 C 
ENDROOT
BRANCH   3   5
HETATM    5  C   UNL     1      -1.694  -3.686   0.682  1.00  0.00     0.143 C 
BRANCH   5   6
HETATM    6  N   UNL     1      -0.895  -2.986  -0.333  1.00  0.00    -0.359 N 
BRANCH   6   7
HETATM    7  C   UNL     1      -0.861  -1.581  -0.195  1.00  0.00     0.135 A 
HETATM    8  C   UNL     1       0.326  -0.802  -0.150  1.00  0.00     0.122 A 
HETATM    9  C   UNL     1       0.179   0.577  -0.166  1.00  0.00     0.140 A 
HETATM   10  N   UNL     1       1.671  -1.129  -0.072  1.00  0.00    -0.346 N 
HETATM   11  N   UNL     1       1.452   1.080  -0.112  1.00  0.00    -0.324 N 
HETATM   12  N   UNL     1      -0.965   1.274  -0.227  1.00  0.00    -0.336 N 
HETATM   13  C   UNL     1       2.310   0.018  -0.022  1.00  0.00     0.185 A 
HETATM   14  C   UNL     1      -2.029   0.450  -0.215  1.00  0.00     0.183 A 
ATOM     15  HN  UNL     1      -1.021   2.291  -0.276  1.00  0.00     0.168 HD
HETATM   16  N   UNL     1      -2.045  -0.900  -0.172  1.00  0.00    -0.337 N 
ATOM     17  HN  UNL     1      -2.930  -1.405  -0.123  1.00  0.00     0.168 HD
ATOM     18  HN  UNL     1       2.079  -2.064  -0.057  1.00  0.00     0.167 HD
BRANCH  11  19
HETATM   19  C   UNL     1       1.823   2.479  -0.031  1.00  0.00     0.171 C 
BRANCH  19  20
HETATM   20  C   UNL     1       2.168   3.139  -1.376  1.00  0.00     0.097 C 
HETATM   21  C   UNL     1       3.300   2.502  -2.160  1.00  0.00     0.068 C 
HETATM   22  C   UNL     1       3.862   3.660  -2.970  1.00  0.00     0.170 C 
HETATM   23  O   UNL     1       3.546   4.873  -2.279  1.00  0.00    -0.388 OA
HETATM   24  C   UNL     1       2.723   4.549  -1.148  1.00  0.00     0.207 C 
BRANCH  20  25
HETATM   25  O   UNL     1       1.011   3.241  -2.215  1.00  0.00    -0.386 OA
HETATM   26  H   UNL     1       0.543   2.386  -2.235  1.00  0.00     0.210 HD
ENDBRANCH  20  25
ENDBRANCH  19  20
ENDBRANCH  11  19
ENDBRANCH   6   7
BRANCH   6  27
HETATM   27  C   UNL     1       0.297  -3.661  -0.874  1.00  0.00     0.086 A 
HETATM   28  C   UNL     1       0.652  -3.404  -2.321  1.00  0.00     0.027 A 
HETATM   29  C   UNL     1       0.236  -4.773  -1.884  1.00  0.00     0.027 A 
ENDBRANCH   6  27
ENDBRANCH   5   6
ENDBRANCH   3   5
TORSDOF 7
