REMARK  3 active torsions:
REMARK  status: ('A' for Active; 'I' for Inactive)
REMARK    1  A    between atoms: C_6  and  N_7 
REMARK       I    between atoms: N_7  and  C_8 
REMARK    2  A    between atoms: C_8  and  C_10 
REMARK    3  A    between atoms: C_10  and  N_11 
ROOT
HETATM    1  N   UNL     1       2.913  -3.024  -2.195  1.00  0.00    -0.355 N 
HETATM    2  C   UNL     1       2.183  -3.764  -3.100  1.00  0.00     0.237 C 
HETATM    3  O   UNL     1       1.139  -3.363  -3.615  1.00  0.00    -0.272 OA
HETATM    4  H   UNL     1       3.809  -3.367  -1.868  1.00  0.00     0.162 HD
ENDROOT
BRANCH   2   5
HETATM    5  C   UNL     1       2.712  -5.167  -3.384  1.00  0.00     0.255 C 
BRANCH   5   6
HETATM    6  N   UNL     1       1.739  -6.152  -2.935  1.00  0.00    -0.246 N 
HETATM    7  N   UNL     1       0.550  -6.205  -3.692  1.00  0.00    -0.261 N 
HETATM    8  C   UNL     1      -0.555  -6.886  -3.258  1.00  0.00     0.260 C 
HETATM    9  H   UNL     1       0.357  -5.430  -4.327  1.00  0.00     0.190 HD
HETATM   10  O   UNL     1      -1.653  -6.792  -3.791  1.00  0.00    -0.267 OA
HETATM   11  C   UNL     1      -0.358  -7.770  -2.096  1.00  0.00     0.081 C 
HETATM   12  C   UNL     1       0.760  -7.707  -1.368  1.00  0.00     0.081 C 
HETATM   13  C   UNL     1       1.853  -6.774  -1.712  1.00  0.00     0.262 C 
HETATM   14  O   UNL     1       2.794  -6.623  -0.941  1.00  0.00    -0.267 OA
ENDBRANCH   5   6
ENDBRANCH   2   5
BRANCH   1  15
HETATM   15  C   UNL     1       2.478  -1.695  -1.791  1.00  0.00     0.088 C 
HETATM   16  C   UNL     1       3.038  -0.644  -2.760  1.00  0.00     0.025 C 
HETATM   17  C   UNL     1       2.599   0.766  -2.383  1.00  0.00     0.002 C 
HETATM   18  C   UNL     1       2.942   1.096  -0.932  1.00  0.00     0.005 C 
HETATM   19  C   UNL     1       2.406   0.055   0.066  1.00  0.00    -0.013 C 
HETATM   20  C   UNL     1       0.881   0.178   0.211  1.00  0.00     0.010 C 
HETATM   21  C   UNL     1       2.884  -1.366  -0.335  1.00  0.00     0.008 C 
HETATM   22  C   UNL     1       2.403  -2.432   0.655  1.00  0.00     0.012 C 
ENDBRANCH   1  15
TORSDOF 3
