REMARK  3 active torsions:
REMARK  status: ('A' for Active; 'I' for Inactive)
REMARK    1  A    between atoms: N_2  and  C_4 
REMARK    2  A    between atoms: C_8  and  N_9 
REMARK       I    between atoms: N_9  and  C_10 
REMARK       I    between atoms: C_10  and  N_12 
REMARK    3  A    between atoms: N_12  and  C_13 
ROOT
HETATM    1  N   UNL     1       2.224  -4.480  -1.485  1.00  0.00    -0.295 N 
HETATM    2  C   UNL     1       1.083  -4.669  -0.742  1.00  0.00     0.322 C 
HETATM    3  O   UNL     1       0.656  -3.793   0.005  1.00  0.00    -0.247 OA
HETATM    4  N   UNL     1       0.447  -5.854  -0.983  1.00  0.00    -0.337 N 
HETATM    5  H   UNL     1       2.581  -3.539  -1.434  1.00  0.00     0.172 HD
HETATM    6  H   UNL     1       1.091  -6.498  -1.446  1.00  0.00     0.164 HD
ENDROOT
BRANCH   1   7
HETATM    7  C   UNL     1       2.933  -5.426  -2.263  1.00  0.00     0.110 A 
HETATM    8  C   UNL     1       3.923  -4.963  -3.110  1.00  0.00     0.049 A 
HETATM    9  C   UNL     1       4.587  -5.885  -3.912  1.00  0.00     0.007 A 
HETATM   10  C   UNL     1       4.292  -7.241  -3.796  1.00  0.00     0.048 A 
HETATM   11  C   UNL     1       3.336  -7.663  -2.886  1.00  0.00     0.103 A 
HETATM   12  N   UNL     1       2.640  -6.748  -2.157  1.00  0.00    -0.329 N 
ATOM     13  HN  UNL     1       1.897  -7.056  -1.530  1.00  0.00     0.169 HD
BRANCH  11  14
HETATM   14  N   UNL     1       3.055  -9.023  -2.709  1.00  0.00    -0.376 N 
HETATM   15  C   UNL     1       4.066 -10.037  -2.979  1.00  0.00     0.150 C 
HETATM   16  C   UNL     1       2.088  -9.324  -1.675  1.00  0.00     0.150 C 
ENDBRANCH  11  14
ENDBRANCH   1   7
BRANCH   4  17
HETATM   17  C   UNL     1      -0.587  -6.522  -0.261  1.00  0.00     0.096 A 
HETATM   18  C   UNL     1      -2.058  -6.847  -0.570  1.00  0.00     0.019 A 
HETATM   19  C   UNL     1      -0.991  -7.671  -1.163  1.00  0.00     0.019 A 
HETATM   20  C   UNL     1      -2.893  -7.933   0.158  1.00  0.00    -0.008 C 
HETATM   21  C   UNL     1      -1.200  -9.083  -0.688  1.00  0.00    -0.008 C 
HETATM   22  C   UNL     1      -2.366  -9.621  -1.524  1.00  0.00     0.005 C 
HETATM   23  C   UNL     1      -1.832  -8.909   0.691  1.00  0.00     0.010 C 
HETATM   24  C   UNL     1      -3.561  -8.855  -0.909  1.00  0.00     0.005 C 
ENDBRANCH   4  17
TORSDOF 3
