REMARK  3 active torsions:
REMARK  status: ('A' for Active; 'I' for Inactive)
REMARK    1  A    between atoms: S_2  and  C_5 
REMARK    2  A    between atoms: C_8  and  N_9 
REMARK       I    between atoms: N_9  and  C_10 
REMARK       I    between atoms: C_10  and  N_12 
REMARK    3  A    between atoms: N_12  and  C_13 
ROOT
HETATM    1  C   UNL     1       4.149   0.626  -1.664  1.00  0.00     0.128 A 
HETATM    2  C   UNL     1       3.994  -0.519  -2.421  1.00  0.00     0.044 A 
HETATM    3  C   UNL     1       3.968  -0.374  -3.803  1.00  0.00     0.034 A 
HETATM    4  C   UNL     1       4.119   0.887  -4.389  1.00  0.00     0.051 A 
HETATM    5  C   UNL     1       4.216   1.977  -3.521  1.00  0.00     0.118 A 
HETATM    6  N   UNL     1       4.240   1.887  -2.165  1.00  0.00    -0.355 N 
ATOM      7  HN  UNL     1       4.321   2.708  -1.565  1.00  0.00     0.166 HD
ENDROOT
BRANCH   4   8
HETATM    8  N   UNL     1       4.206   1.084  -5.791  1.00  0.00    -0.308 N 
HETATM    9  C   UNL     1       4.499   0.086  -6.699  1.00  0.00     0.321 C 
HETATM   10  O   UNL     1       4.711  -1.088  -6.426  1.00  0.00    -0.247 OA
HETATM   11  N   UNL     1       4.598   0.553  -7.992  1.00  0.00    -0.338 N 
HETATM   12  H   UNL     1       4.093   1.396  -8.229  1.00  0.00     0.164 HD
HETATM   13  H   UNL     1       4.290   2.035  -6.124  1.00  0.00     0.170 HD
BRANCH  11  14
HETATM   14  C   UNL     1       4.849  -0.408  -9.053  1.00  0.00     0.086 C 
HETATM   15  C   UNL     1       5.435   0.221 -10.315  1.00  0.00     0.025 C 
HETATM   16  C   UNL     1       4.733  -0.452 -11.494  1.00  0.00     0.002 C 
HETATM   17  C   UNL     1       3.935  -1.607 -10.908  1.00  0.00     0.002 C 
HETATM   18  C   UNL     1       3.584  -1.134  -9.507  1.00  0.00     0.025 C 
ENDBRANCH  11  14
ENDBRANCH   4   8
BRANCH   1  19
HETATM   19  S   UNL     1       4.289   0.481   0.103  1.00  0.00     0.187 S 
HETATM   20  C   UNL     1       4.517   2.129   0.694  1.00  0.00     0.168 C 
HETATM   21  O   UNL     1       5.509  -0.259   0.372  1.00  0.00    -0.222 OA
HETATM   22  O   UNL     1       3.007   0.003   0.594  1.00  0.00    -0.222 OA
ENDBRANCH   1  19
TORSDOF 3
