REMARK  5 active torsions:
REMARK  status: ('A' for Active; 'I' for Inactive)
REMARK    1  A    between atoms: C_2  and  C_3 
REMARK       I    between atoms: C_2  and  N_12 
REMARK    2  A    between atoms: C_3  and  N_4 
REMARK    3  A    between atoms: N_12  and  C_13 
REMARK    4  A    between atoms: C_13  and  C_14 
REMARK    5  A    between atoms: C_13  and  C_17 
ROOT
HETATM    1  O   UNL     1       2.644  -0.880   0.531  1.00  0.00    -0.272 OA
HETATM    2  C   UNL     1       2.247   0.263   0.315  1.00  0.00     0.236 C 
HETATM    3  N   UNL     1       3.095   1.313   0.023  1.00  0.00    -0.354 N 
HETATM    4  H   UNL     1       2.717   2.241  -0.105  1.00  0.00     0.162 HD
ENDROOT
BRANCH   2   5
HETATM    5  C   UNL     1       0.756   0.636   0.376  1.00  0.00     0.235 C 
BRANCH   5   6
HETATM    6  N   UNL     1      -0.091  -0.213  -0.468  1.00  0.00    -0.301 N 
HETATM    7  C   UNL     1      -0.354  -1.515  -0.089  1.00  0.00     0.102 C 
HETATM    8  C   UNL     1      -1.089  -2.339  -0.843  1.00  0.00     0.092 C 
HETATM    9  C   UNL     1      -1.641  -1.835  -2.107  1.00  0.00     0.250 C 
HETATM   10  O   UNL     1      -2.267  -2.571  -2.865  1.00  0.00    -0.268 OA
HETATM   11  N   UNL     1      -1.407  -0.519  -2.375  1.00  0.00    -0.275 N 
HETATM   12  C   UNL     1      -0.592   0.313  -1.653  1.00  0.00     0.329 C 
HETATM   13  H   UNL     1      -1.771  -0.157  -3.242  1.00  0.00     0.173 HD
HETATM   14  O   UNL     1      -0.347   1.448  -2.057  1.00  0.00    -0.246 OA
ENDBRANCH   5   6
ENDBRANCH   2   5
BRANCH   3  15
HETATM   15  C   UNL     1       4.537   1.161  -0.069  1.00  0.00     0.092 C 
BRANCH  15  16
HETATM   16  C   UNL     1       5.111   1.950  -1.224  1.00  0.00     0.009 A 
HETATM   17  C   UNL     1       4.974   3.451  -1.331  1.00  0.00     0.007 A 
HETATM   18  C   UNL     1       4.281   2.564  -2.329  1.00  0.00     0.007 A 
ENDBRANCH  15  16
BRANCH  15  19
HETATM   19  C   UNL     1       5.155   1.575   1.249  1.00  0.00     0.009 A 
HETATM   20  C   UNL     1       6.655   1.613   1.458  1.00  0.00     0.007 A 
HETATM   21  C   UNL     1       5.837   0.543   2.118  1.00  0.00     0.007 A 
ENDBRANCH  15  19
ENDBRANCH   3  15
TORSDOF 5
