REMARK  4 active torsions:
REMARK  status: ('A' for Active; 'I' for Inactive)
REMARK    1  A    between atoms: C_2  and  C_3 
REMARK    2  A    between atoms: C_2  and  C_16 
REMARK    3  A    between atoms: C_3  and  N_4 
REMARK       I    between atoms: N_4  and  C_5 
REMARK       I    between atoms: C_5  and  N_7 
REMARK    4  A    between atoms: C_11  and  C_12 
ROOT
HETATM    1  N   UNL     1       2.658   0.202  -2.688  1.00  0.00    -0.342 N 
HETATM    2  C   UNL     1       2.801   0.927  -3.846  1.00  0.00     0.318 C 
HETATM    3  O   UNL     1       3.322   2.037  -3.858  1.00  0.00    -0.247 OA
HETATM    4  N   UNL     1       2.350   0.299  -4.988  1.00  0.00    -0.329 N 
HETATM    5  C   UNL     1       2.602   0.924  -6.279  1.00  0.00     0.128 C 
HETATM    6  C   UNL     1       2.571  -0.207  -7.304  1.00  0.00     0.022 C 
HETATM    7  C   UNL     1       2.616  -1.485  -6.469  1.00  0.00     0.027 C 
HETATM    8  C   UNL     1       1.941  -1.091  -5.155  1.00  0.00     0.093 C 
HETATM    9  H   UNL     1       1.816  -0.347  -2.670  1.00  0.00     0.164 HD
ENDROOT
BRANCH   1  10
HETATM   10  C   UNL     1       3.051   0.799  -1.422  1.00  0.00     0.133 C 
BRANCH  10  11
HETATM   11  C   UNL     1       2.826  -0.106  -0.193  1.00  0.00     0.032 C 
HETATM   12  C   UNL     1       3.688  -1.373  -0.253  1.00  0.00     0.017 C 
BRANCH  11  13
HETATM   13  C   UNL     1       1.349  -0.381   0.051  1.00  0.00    -0.050 A 
HETATM   14  C   UNL     1       0.580   0.555   0.756  1.00  0.00     0.024 A 
HETATM   15  C   UNL     1      -0.772   0.307   0.951  1.00  0.00     0.088 A 
HETATM   16  N   UNL     1      -1.407  -0.791   0.494  1.00  0.00    -0.375 N 
HETATM   17  C   UNL     1      -0.657  -1.682  -0.182  1.00  0.00     0.088 A 
ATOM     18  HN  UNL     1      -2.404  -0.939   0.652  1.00  0.00     0.164 HD
HETATM   19  C   UNL     1       0.701  -1.526  -0.423  1.00  0.00     0.024 A 
ENDBRANCH  11  13
ENDBRANCH  10  11
ENDBRANCH   1  10
BRANCH   8  20
HETATM   20  C   UNL     1       0.417  -1.115  -5.302  1.00  0.00     0.009 C 
HETATM   21  C   UNL     1      -0.474  -0.776  -4.077  1.00  0.00     0.007 C 
HETATM   22  C   UNL     1      -1.440  -1.875  -4.557  1.00  0.00     0.001 C 
HETATM   23  C   UNL     1      -0.234  -2.527  -5.261  1.00  0.00     0.007 C 
ENDBRANCH   8  20
TORSDOF 4
