REMARK  6 active torsions:
REMARK  status: ('A' for Active; 'I' for Inactive)
REMARK    1  A    between atoms: C_2  and  C_4 
REMARK    2  A    between atoms: C_4  and  C_5 
REMARK    3  A    between atoms: C_5  and  N_6 
REMARK    4  A    between atoms: C_10  and  C_11 
REMARK    5  A    between atoms: C_11  and  N_12 
REMARK    6  A    between atoms: N_12  and  C_13 
ROOT
HETATM    1  N   UNL     1       5.109  -0.985  -2.669  1.00  0.00     0.093 N 
HETATM    2  C   UNL     1       4.038  -1.335  -3.634  1.00  0.00     0.298 C 
HETATM    3  C   UNL     1       3.258  -2.628  -3.313  1.00  0.00     0.198 C 
HETATM    4  O   UNL     1       4.123  -3.738  -3.031  1.00  0.00    -0.381 OA
HETATM    5  C   UNL     1       5.045  -3.395  -1.972  1.00  0.00     0.163 C 
HETATM    6  C   UNL     1       5.911  -2.205  -2.421  1.00  0.00     0.305 C 
ENDROOT
BRANCH   5   7
HETATM    7  C   UNL     1       5.909  -4.620  -1.640  1.00  0.00     0.127 C 
BRANCH   7   8
HETATM    8  N   UNL     1       5.027  -5.680  -1.141  1.00  0.00    -0.275 NA
HETATM    9  H   UNL     1       4.276  -5.847  -1.812  1.00  0.00     0.129 HD
BRANCH   8  10
HETATM   10  C   UNL     1       5.675  -6.889  -0.851  1.00  0.00     0.094 A 
HETATM   11  C   UNL     1       4.897  -7.959  -0.428  1.00  0.00     0.045 A 
HETATM   12  C   UNL     1       5.510  -9.168  -0.114  1.00  0.00     0.022 A 
HETATM   13  C   UNL     1       6.879  -9.249  -0.235  1.00  0.00     0.107 A 
HETATM   14  N   UNL     1       7.630  -8.206  -0.631  1.00  0.00    -0.311 N 
HETATM   15  N   UNL     1       7.018  -7.017  -0.928  1.00  0.00    -0.290 N 
ATOM     16  HN  UNL     1       8.643  -8.299  -0.709  1.00  0.00     0.186 HD
ATOM     17  HN  UNL     1       7.584  -6.217  -1.211  1.00  0.00     0.188 HD
ENDBRANCH   8  10
ENDBRANCH   7   8
ENDBRANCH   5   7
BRANCH   1  18
HETATM   18  C   UNL     1       4.557  -0.388  -1.440  1.00  0.00     0.273 C 
BRANCH  18  19
HETATM   19  C   UNL     1       5.612   0.070  -0.414  1.00  0.00     0.034 C 
BRANCH  19  20
HETATM   20  C   UNL     1       6.623   1.115  -0.928  1.00  0.00    -0.021 C 
HETATM   21  C   UNL     1       5.939   2.424  -1.323  1.00  0.00     0.009 C 
HETATM   22  C   UNL     1       7.679   1.394   0.147  1.00  0.00     0.009 C 
ENDBRANCH  19  20
ENDBRANCH  18  19
ENDBRANCH   1  18
TORSDOF 6
