REMARK  6 active torsions:
REMARK  status: ('A' for Active; 'I' for Inactive)
REMARK    1  A    between atoms: C_2  and  C_3 
REMARK    2  A    between atoms: C_2  and  N_10 
REMARK    3  A    between atoms: C_3  and  N_4 
REMARK    4  A    between atoms: N_10  and  C_11 
REMARK    5  A    between atoms: C_11  and  C_12 
REMARK    6  A    between atoms: C_12  and  C_13 
REMARK       I    between atoms: C_13  and  N_15 
ROOT
HETATM    1  N   UNL     1       3.086  -1.128  -0.711  1.00  0.00     0.089 N 
HETATM    2  H   UNL     1       2.679  -1.004  -1.640  1.00  0.00     0.316 HD
ENDROOT
BRANCH   1   3
HETATM    3  C   UNL     1       2.546  -0.073   0.177  1.00  0.00     0.236 C 
HETATM    4  C   UNL     1       1.016  -0.201   0.139  1.00  0.00     0.044 C 
BRANCH   3   5
HETATM    5  C   UNL     1       3.075  -0.190   1.620  1.00  0.00     0.183 C 
BRANCH   5   6
HETATM    6  N   UNL     1       2.589   0.845   2.506  1.00  0.00    -0.302 N 
HETATM    7  C   UNL     1       1.879   0.667   3.657  1.00  0.00     0.111 A 
HETATM    8  C   UNL     1       1.718   1.918   4.200  1.00  0.00     0.037 A 
HETATM    9  C   UNL     1       2.369   2.784   3.302  1.00  0.00     0.108 A 
HETATM   10  N   UNL     1       2.901   2.133   2.266  1.00  0.00    -0.310 N 
ATOM     11  HN  UNL     1       3.421   2.519   1.478  1.00  0.00     0.186 HD
ENDBRANCH   5   6
ENDBRANCH   3   5
ENDBRANCH   1   3
BRANCH   1  12
HETATM   12  C   UNL     1       4.551  -1.070  -0.828  1.00  0.00     0.279 C 
BRANCH  12  13
HETATM   13  C   UNL     1       5.014  -2.187  -1.750  1.00  0.00     0.133 C 
BRANCH  13  14
HETATM   14  C   UNL     1       6.522  -2.216  -1.901  1.00  0.00     0.221 C 
HETATM   15  O   UNL     1       7.245  -1.369  -1.379  1.00  0.00    -0.273 OA
HETATM   16  N   UNL     1       7.026  -3.259  -2.663  1.00  0.00    -0.348 N 
HETATM   17  C   UNL     1       6.225  -4.268  -3.362  1.00  0.00     0.152 C 
HETATM   18  C   UNL     1       8.458  -3.323  -2.960  1.00  0.00     0.152 C 
HETATM   19  C   UNL     1       6.827  -5.659  -3.153  1.00  0.00     0.187 C 
HETATM   20  O   UNL     1       8.202  -5.689  -3.558  1.00  0.00    -0.388 OA
HETATM   21  C   UNL     1       8.980  -4.754  -2.791  1.00  0.00     0.187 C 
ENDBRANCH  13  14
ENDBRANCH  12  13
ENDBRANCH   1  12
TORSDOF 6
