REMARK  5 active torsions:
REMARK  status: ('A' for Active; 'I' for Inactive)
REMARK    1  A    between atoms: C_2  and  C_3 
REMARK    2  A    between atoms: C_2  and  N_10 
REMARK    3  A    between atoms: C_3  and  N_4 
REMARK    4  A    between atoms: N_10  and  C_11 
REMARK    5  A    between atoms: C_11  and  C_12 
ROOT
HETATM    1  C   UNL     1       2.922   0.037  -1.400  1.00  0.00     0.044 C 
HETATM    2  C   UNL     1       2.421   0.038   0.052  1.00  0.00     0.236 C 
ENDROOT
BRANCH   2   3
HETATM    3  C   UNL     1       2.605  -1.372   0.667  1.00  0.00     0.183 C 
BRANCH   3   4
HETATM    4  N   UNL     1       2.039  -1.511   1.995  1.00  0.00    -0.302 N 
HETATM    5  C   UNL     1       0.718  -1.438   2.335  1.00  0.00     0.111 A 
HETATM    6  C   UNL     1       0.668  -1.581   3.700  1.00  0.00     0.037 A 
HETATM    7  C   UNL     1       2.004  -1.779   4.088  1.00  0.00     0.108 A 
HETATM    8  N   UNL     1       2.839  -1.778   3.047  1.00  0.00    -0.310 N 
ATOM      9  HN  UNL     1       3.846  -1.941   3.047  1.00  0.00     0.186 HD
ENDBRANCH   3   4
ENDBRANCH   2   3
BRANCH   2  10
HETATM   10  N   UNL     1       3.001   1.169   0.805  1.00  0.00     0.091 N 
HETATM   11  H   UNL     1       2.615   1.195   1.755  1.00  0.00     0.316 HD
BRANCH  10  12
HETATM   12  C   UNL     1       4.464   1.124   0.927  1.00  0.00     0.301 C 
BRANCH  12  13
HETATM   13  C   UNL     1       5.029   2.238   1.841  1.00  0.00     0.149 C 
HETATM   14  C   UNL     1       6.558   2.153   1.930  1.00  0.00     0.034 C 
HETATM   15  C   UNL     1       7.008   0.937   2.734  1.00  0.00     0.004 C 
HETATM   16  C   UNL     1       6.304   0.907   4.085  1.00  0.00     0.026 C 
HETATM   17  C   UNL     1       4.800   1.094   3.947  1.00  0.00     0.168 C 
HETATM   18  O   UNL     1       4.464   2.234   3.161  1.00  0.00    -0.384 OA
ENDBRANCH  12  13
ENDBRANCH  10  12
ENDBRANCH   2  10
TORSDOF 5
