REMARK  6 active torsions:
REMARK  status: ('A' for Active; 'I' for Inactive)
REMARK    1  A    between atoms: C_8  and  C_9 
REMARK    2  A    between atoms: C_9  and  C_10 
REMARK       I    between atoms: C_10  and  N_12 
REMARK    3  A    between atoms: N_12  and  C_13 
REMARK    4  A    between atoms: C_13  and  C_14 
REMARK    5  A    between atoms: C_14  and  S_15 
REMARK    6  A    between atoms: S_15  and  C_16 
ROOT
HETATM    1  C   UNL     1       1.765   3.116   0.307  1.00  0.00     0.222 C 
HETATM    2  O   UNL     1       0.899   2.251   0.434  1.00  0.00    -0.273 OA
HETATM    3  N   UNL     1       1.458   4.461   0.231  1.00  0.00    -0.360 N 
HETATM    4  H   UNL     1       2.159   5.104  -0.118  1.00  0.00     0.162 HD
ENDROOT
BRANCH   1   5
HETATM    5  C   UNL     1       3.238   2.768   0.201  1.00  0.00     0.146 C 
BRANCH   5   6
HETATM    6  C   UNL     1       3.940   2.567   1.504  1.00  0.00     0.006 A 
HETATM    7  C   UNL     1       3.458   2.112   2.770  1.00  0.00     0.038 A 
HETATM    8  C   UNL     1       2.092   1.703   3.180  1.00  0.00     0.071 C 
HETATM    9  N   UNL     1       4.443   2.052   3.675  1.00  0.00    -0.265 N 
HETATM   10  O   UNL     1       5.589   2.432   3.017  1.00  0.00    -0.242 OA
ATOM     11  HN  UNL     1       4.360   1.780   4.654  1.00  0.00     0.194 HD
HETATM   12  C   UNL     1       5.296   2.726   1.727  1.00  0.00     0.081 A 
HETATM   13  C   UNL     1       6.444   3.109   0.880  1.00  0.00     0.079 C 
ENDBRANCH   5   6
ENDBRANCH   1   5
BRANCH   3  14
HETATM   14  C   UNL     1       0.064   4.877   0.125  1.00  0.00     0.132 C 
BRANCH  14  15
HETATM   15  C   UNL     1      -0.142   6.397   0.052  1.00  0.00     0.094 C 
BRANCH  15  16
HETATM   16  S   UNL     1       0.653   7.077  -1.450  1.00  0.00    -0.163 SA
BRANCH  16  17
HETATM   17  C   UNL     1       0.119   8.823  -1.444  1.00  0.00     0.047 C 
HETATM   18  C   UNL     1       0.545   9.654  -0.235  1.00  0.00     0.015 C 
HETATM   19  C   UNL     1      -0.366  10.889  -0.271  1.00  0.00     0.001 C 
HETATM   20  C   UNL     1      -1.432  10.608  -1.334  1.00  0.00     0.001 C 
HETATM   21  C   UNL     1      -1.378   9.097  -1.547  1.00  0.00     0.015 C 
ENDBRANCH  16  17
ENDBRANCH  15  16
ENDBRANCH  14  15
ENDBRANCH   3  14
TORSDOF 6
