REMARK  4 active torsions:
REMARK  status: ('A' for Active; 'I' for Inactive)
REMARK    1  A    between atoms: C_2  and  C_4 
REMARK    2  A    between atoms: C_9  and  N_10 
REMARK       I    between atoms: N_10  and  C_11 
REMARK       I    between atoms: C_11  and  N_13 
REMARK    3  A    between atoms: N_13  and  C_14 
REMARK    4  A    between atoms: C_17  and  O_18 
ROOT
HETATM    1  N   UNL     1       3.438   4.547  -2.918  1.00  0.00    -0.288 N 
HETATM    2  C   UNL     1       4.147   4.691  -4.077  1.00  0.00     0.322 C 
HETATM    3  O   UNL     1       4.831   3.763  -4.499  1.00  0.00    -0.247 OA
HETATM    4  N   UNL     1       3.983   5.868  -4.748  1.00  0.00    -0.338 N 
HETATM    5  H   UNL     1       3.451   3.632  -2.493  1.00  0.00     0.172 HD
HETATM    6  H   UNL     1       3.571   6.627  -4.216  1.00  0.00     0.164 HD
ENDROOT
BRANCH   1   7
HETATM    7  C   UNL     1       2.658   5.525  -2.367  1.00  0.00     0.169 A 
HETATM    8  N   UNL     1       2.588   6.788  -2.721  1.00  0.00    -0.279 N 
HETATM    9  N   UNL     1       1.653   7.475  -1.993  1.00  0.00    -0.296 N 
ATOM     10  HN  UNL     1       3.162   7.208  -3.452  1.00  0.00     0.189 HD
HETATM   11  C   UNL     1       1.039   6.702  -1.120  1.00  0.00     0.073 A 
ATOM     12  HN  UNL     1       1.455   8.468  -2.113  1.00  0.00     0.187 HD
HETATM   13  S   UNL     1       1.624   5.077  -1.091  1.00  0.00    -0.037 SA
BRANCH  11  14
HETATM   14  C   UNL     1      -0.072   7.169  -0.226  1.00  0.00     0.036 C 
HETATM   15  C   UNL     1       0.454   8.212   0.760  1.00  0.00     0.016 C 
HETATM   16  C   UNL     1      -1.210   7.758  -1.066  1.00  0.00     0.016 C 
ENDBRANCH  11  14
ENDBRANCH   1   7
BRANCH   4  17
HETATM   17  C   UNL     1       4.568   6.199  -6.035  1.00  0.00     0.086 C 
HETATM   18  C   UNL     1       5.897   6.941  -5.858  1.00  0.00     0.028 C 
HETATM   19  C   UNL     1       5.714   8.350  -5.283  1.00  0.00     0.034 C 
HETATM   20  C   UNL     1       4.687   9.185  -6.050  1.00  0.00     0.118 C 
HETATM   21  C   UNL     1       3.369   8.443  -6.274  1.00  0.00     0.034 C 
HETATM   22  C   UNL     1       3.575   7.038  -6.852  1.00  0.00     0.028 C 
BRANCH  20  23
HETATM   23  O   UNL     1       5.230   9.595  -7.303  1.00  0.00    -0.396 OA
HETATM   24  H   UNL     1       5.397   8.809  -7.848  1.00  0.00     0.210 HD
ENDBRANCH  20  23
ENDBRANCH   4  17
TORSDOF 4
