REMARK  4 active torsions:
REMARK  status: ('A' for Active; 'I' for Inactive)
REMARK    1  A    between atoms: C_2  and  C_3 
REMARK       I    between atoms: C_2  and  N_12 
REMARK    2  A    between atoms: C_3  and  N_4 
REMARK    3  A    between atoms: N_12  and  C_13 
REMARK    4  A    between atoms: C_13  and  C_14 
ROOT
HETATM    1  O   UNL     1       2.869   0.715   0.795  1.00  0.00    -0.272 OA
HETATM    2  C   UNL     1       2.270   0.060  -0.059  1.00  0.00     0.237 C 
HETATM    3  N   UNL     1       2.923  -0.780  -0.926  1.00  0.00    -0.357 N 
HETATM    4  H   UNL     1       2.410  -1.452  -1.487  1.00  0.00     0.162 HD
ENDROOT
BRANCH   2   5
HETATM    5  C   UNL     1       0.761   0.182  -0.284  1.00  0.00     0.255 C 
BRANCH   5   6
HETATM    6  N   UNL     1       0.200   1.465   0.139  1.00  0.00    -0.246 N 
HETATM    7  N   UNL     1       1.032   2.593  -0.060  1.00  0.00    -0.261 N 
HETATM    8  C   UNL     1       0.663   3.837   0.375  1.00  0.00     0.260 C 
HETATM    9  H   UNL     1       2.040   2.439  -0.013  1.00  0.00     0.190 HD
HETATM   10  O   UNL     1       1.452   4.767   0.482  1.00  0.00    -0.267 OA
HETATM   11  C   UNL     1      -0.763   4.015   0.687  1.00  0.00     0.081 C 
HETATM   12  C   UNL     1      -1.607   2.982   0.675  1.00  0.00     0.081 C 
HETATM   13  C   UNL     1      -1.152   1.609   0.364  1.00  0.00     0.262 C 
HETATM   14  O   UNL     1      -1.965   0.691   0.334  1.00  0.00    -0.267 OA
ENDBRANCH   5   6
ENDBRANCH   2   5
BRANCH   3  15
HETATM   15  C   UNL     1       4.371  -0.933  -0.888  1.00  0.00     0.154 C 
BRANCH  15  16
HETATM   16  C   UNL     1       4.949  -1.215  -2.273  1.00  0.00     0.139 C 
HETATM   17  C   UNL     1       4.725  -0.108  -3.297  1.00  0.00     0.035 C 
HETATM   18  C   UNL     1       4.478  -0.842  -4.601  1.00  0.00     0.029 C 
HETATM   19  C   UNL     1       4.569  -2.311  -4.246  1.00  0.00     0.168 C 
HETATM   20  O   UNL     1       4.334  -2.387  -2.837  1.00  0.00    -0.384 OA
ENDBRANCH  15  16
ENDBRANCH   3  15
TORSDOF 4
