REMARK  5 active torsions:
REMARK  status: ('A' for Active; 'I' for Inactive)
REMARK    1  A    between atoms: C_2  and  C_3 
REMARK    2  A    between atoms: C_3  and  N_4 
REMARK       I    between atoms: N_4  and  C_5 
REMARK    3  A    between atoms: C_5  and  C_7 
REMARK    4  A    between atoms: C_7  and  C_8 
REMARK    5  A    between atoms: C_11  and  N_14 
ROOT
HETATM    1  C   UNL     1       7.095  -2.412   3.556  1.00  0.00     0.026 A 
HETATM    2  C   UNL     1       7.763  -3.620   3.561  1.00  0.00     0.078 A 
HETATM    3  S   UNL     1       8.201  -4.039   5.163  1.00  0.00    -0.064 SA
HETATM    4  C   UNL     1       7.564  -2.548   5.720  1.00  0.00     0.155 A 
HETATM    5  N   UNL     1       6.981  -1.816   4.802  1.00  0.00    -0.339 N 
ATOM      6  HN  UNL     1       6.509  -0.930   4.980  1.00  0.00     0.168 HD
ENDROOT
BRANCH   1   7
HETATM    7  C   UNL     1       6.553  -1.684   2.374  1.00  0.00     0.160 C 
BRANCH   7   8
HETATM    8  C   UNL     1       5.040  -1.630   2.395  1.00  0.00     0.223 C 
HETATM    9  N   UNL     1       4.514  -0.854   3.412  1.00  0.00    -0.361 N 
HETATM   10  H   UNL     1       5.136  -0.642   4.192  1.00  0.00     0.162 HD
HETATM   11  O   UNL     1       4.353  -2.190   1.546  1.00  0.00    -0.273 OA
BRANCH   9  12
HETATM   12  C   UNL     1       3.087  -0.729   3.623  1.00  0.00     0.122 C 
BRANCH  12  13
HETATM   13  C   UNL     1       2.503  -1.892   4.421  1.00  0.00     0.015 C 
HETATM   14  C   UNL     1       3.027  -1.944   5.849  1.00  0.00     0.006 C 
ENDBRANCH  12  13
ENDBRANCH   9  12
ENDBRANCH   7   8
ENDBRANCH   1   7
BRANCH   4  15
HETATM   15  N   UNL     1       7.753  -2.212   7.041  1.00  0.00    -0.278 N 
HETATM   16  C   UNL     1       8.462  -2.935   8.071  1.00  0.00     0.155 C 
HETATM   17  C   UNL     1       8.671  -1.906   9.172  1.00  0.00     0.145 C 
HETATM   18  N   UNL     1       7.781  -0.839   8.828  1.00  0.00    -0.341 N 
HETATM   19  C   UNL     1       7.319  -0.968   7.519  1.00  0.00     0.324 C 
HETATM   20  H   UNL     1       7.755   0.078   9.257  1.00  0.00     0.164 HD
HETATM   21  O   UNL     1       6.684  -0.083   6.970  1.00  0.00    -0.247 OA
ENDBRANCH   4  15
TORSDOF 5
