REMARK  3 active torsions:
REMARK  status: ('A' for Active; 'I' for Inactive)
REMARK    1  A    between atoms: C_4  and  N_5 
REMARK       I    between atoms: N_5  and  C_6 
REMARK       I    between atoms: C_6  and  N_8 
REMARK    2  A    between atoms: N_8  and  C_9 
REMARK    3  A    between atoms: C_9  and  C_10 
ROOT
HETATM    1  N   UNL     1       5.550   1.758   0.767  1.00  0.00    -0.287 N 
HETATM    2  C   UNL     1       5.595   3.012   0.214  1.00  0.00     0.322 C 
HETATM    3  O   UNL     1       4.600   3.467  -0.344  1.00  0.00    -0.247 OA
HETATM    4  N   UNL     1       6.729   3.738   0.418  1.00  0.00    -0.342 N 
HETATM    5  H   UNL     1       4.607   1.415   0.883  1.00  0.00     0.172 HD
HETATM    6  H   UNL     1       7.510   3.303   0.904  1.00  0.00     0.164 HD
ENDROOT
BRANCH   1   7
HETATM    7  C   UNL     1       6.562   1.224   1.514  1.00  0.00     0.176 A 
HETATM    8  C   UNL     1       6.547   0.527   2.694  1.00  0.00     0.085 A 
HETATM    9  C   UNL     1       7.914   0.412   3.035  1.00  0.00     0.033 A 
HETATM   10  C   UNL     1       8.510  -0.077   4.298  1.00  0.00     0.070 C 
HETATM   11  N   UNL     1       8.706   0.879   2.062  1.00  0.00    -0.264 N 
HETATM   12  O   UNL     1       7.849   1.399   1.111  1.00  0.00    -0.220 OA
ATOM     13  HN  UNL     1       9.725   0.856   2.030  1.00  0.00     0.194 HD
ENDBRANCH   1   7
BRANCH   4  14
HETATM   14  C   UNL     1       6.869   5.150   0.114  1.00  0.00     0.140 C 
BRANCH  14  15
HETATM   15  C   UNL     1       7.024   6.015   1.385  1.00  0.00     0.074 C 
HETATM   16  C   UNL     1       7.237   7.500   1.067  1.00  0.00     0.090 C 
HETATM   17  S   UNL     1       8.729   7.883   0.084  1.00  0.00    -0.167 SA
HETATM   18  C   UNL     1      10.004   7.193   1.190  1.00  0.00     0.084 C 
HETATM   19  C   UNL     1       9.811   5.717   1.522  1.00  0.00     0.084 C 
HETATM   20  S   UNL     1       8.332   5.390   2.534  1.00  0.00    -0.161 SA
ENDBRANCH  14  15
ENDBRANCH   4  14
TORSDOF 3
