REMARK  5 active torsions:
REMARK  status: ('A' for Active; 'I' for Inactive)
REMARK    1  A    between atoms: C_7  and  O_8 
REMARK    2  A    between atoms: O_8  and  C_9 
REMARK    3  A    between atoms: C_9  and  C_10 
REMARK    4  A    between atoms: C_10  and  N_11 
REMARK       I    between atoms: N_11  and  C_12 
REMARK       I    between atoms: C_12  and  N_14 
REMARK    5  A    between atoms: N_14  and  C_15 
ROOT
HETATM    1  N   UNL     1       2.783  -4.514   2.564  1.00  0.00    -0.341 N 
HETATM    2  C   UNL     1       2.243  -5.593   3.232  1.00  0.00     0.321 C 
HETATM    3  O   UNL     1       1.358  -5.482   4.073  1.00  0.00    -0.247 OA
HETATM    4  N   UNL     1       2.881  -6.755   2.889  1.00  0.00    -0.293 N 
HETATM    5  H   UNL     1       2.903  -4.672   1.568  1.00  0.00     0.164 HD
HETATM    6  H   UNL     1       3.858  -6.669   2.651  1.00  0.00     0.172 HD
ENDROOT
BRANCH   1   7
HETATM    7  C   UNL     1       2.346  -3.178   2.925  1.00  0.00     0.150 C 
BRANCH   7   8
HETATM    8  C   UNL     1       2.976  -2.108   2.037  1.00  0.00     0.188 C 
BRANCH   8   9
HETATM    9  O   UNL     1       2.432  -2.224   0.719  1.00  0.00    -0.384 OA
BRANCH   9  10
HETATM   10  C   UNL     1       2.949  -1.261  -0.209  1.00  0.00     0.125 C 
HETATM   11  C   UNL     1       2.591   0.196   0.169  1.00  0.00     0.010 C 
HETATM   12  C   UNL     1       1.094   0.383   0.456  1.00  0.00     0.012 C 
HETATM   13  C   UNL     1       3.086   1.164  -0.912  1.00  0.00     0.007 C 
HETATM   14  C   UNL     1       2.568   0.813  -2.305  1.00  0.00     0.001 C 
HETATM   15  C   UNL     1       2.872  -0.636  -2.673  1.00  0.00     0.002 C 
HETATM   16  C   UNL     1       2.409  -1.620  -1.602  1.00  0.00     0.032 C 
ENDBRANCH   9  10
ENDBRANCH   8   9
ENDBRANCH   7   8
ENDBRANCH   1   7
BRANCH   4  17
HETATM   17  C   UNL     1       2.552  -7.966   3.460  1.00  0.00     0.132 A 
HETATM   18  C   UNL     1       1.274  -8.439   3.834  1.00  0.00     0.084 A 
HETATM   19  C   UNL     1       1.514  -9.681   4.365  1.00  0.00     0.076 A 
HETATM   20  C   UNL     1       0.665 -10.739   4.938  1.00  0.00     0.079 C 
HETATM   21  O   UNL     1       2.848  -9.937   4.315  1.00  0.00    -0.241 OA
HETATM   22  N   UNL     1       3.496  -8.880   3.702  1.00  0.00    -0.245 N 
ATOM     23  HN  UNL     1       4.489  -8.812   3.480  1.00  0.00     0.196 HD
ENDBRANCH   4  17
TORSDOF 5
