REMARK  8 active torsions:
REMARK  status: ('A' for Active; 'I' for Inactive)
REMARK    1  A    between atoms: N_2  and  C_10 
REMARK    2  A    between atoms: C_6  and  N_9 
REMARK    3  A    between atoms: C_8  and  C_10 
REMARK    4  A    between atoms: C_8  and  O_23 
REMARK    5  A    between atoms: N_9  and  C_21 
REMARK    6  A    between atoms: N_9  and  C_25 
REMARK       I    between atoms: C_17  and  N_22 
REMARK    7  A    between atoms: N_22  and  C_26 
REMARK    8  A    between atoms: C_25  and  C_26 
ROOT
HETATM    1  C   UNL     1       0.464  -0.752   0.068  1.00  0.00     0.122 A 
HETATM    2  N   UNL     1       1.503   1.183  -0.029  1.00  0.00    -0.324 N 
HETATM    3  C   UNL     1       0.258   0.619  -0.054  1.00  0.00     0.140 A 
HETATM    4  N   UNL     1       1.820  -1.009   0.168  1.00  0.00    -0.346 N 
ATOM      5  HN  UNL     1       2.272  -1.920   0.244  1.00  0.00     0.167 HD
HETATM    6  C   UNL     1      -0.683  -1.588  -0.007  1.00  0.00     0.135 A 
HETATM    7  C   UNL     1       2.404   0.169   0.145  1.00  0.00     0.185 A 
HETATM    8  N   UNL     1      -1.888  -0.942  -0.090  1.00  0.00    -0.337 N 
ATOM      9  HN  UNL     1      -2.753  -1.482  -0.087  1.00  0.00     0.168 HD
HETATM   10  N   UNL     1      -0.911   1.265  -0.197  1.00  0.00    -0.336 N 
ATOM     11  HN  UNL     1      -1.005   2.275  -0.307  1.00  0.00     0.168 HD
HETATM   12  C   UNL     1      -1.939   0.403  -0.176  1.00  0.00     0.183 A 
ENDROOT
BRANCH   6  13
HETATM   13  N   UNL     1      -0.656  -2.981  -0.149  1.00  0.00    -0.360 N 
BRANCH  13  14
HETATM   14  C   UNL     1       0.254  -3.784   0.695  1.00  0.00     0.077 C 
HETATM   15  C   UNL     1      -0.296  -3.962   2.113  1.00  0.00     0.032 C 
HETATM   16  C   UNL     1       0.555  -5.161   0.094  1.00  0.00     0.032 C 
ENDBRANCH  13  14
BRANCH  13  17
HETATM   17  C   UNL     1      -1.795  -3.592  -0.862  1.00  0.00     0.144 C 
BRANCH  17  18
HETATM   18  C   UNL     1      -2.041  -2.927  -2.244  1.00  0.00     0.142 C 
BRANCH  18  19
HETATM   19  N   UNL     1      -3.002  -3.594  -3.109  1.00  0.00    -0.360 N 
HETATM   20  C   UNL     1      -2.715  -4.794  -3.708  1.00  0.00     0.213 C 
HETATM   21  O   UNL     1      -1.724  -5.468  -3.440  1.00  0.00    -0.274 OA
HETATM   22  C   UNL     1      -3.727  -5.234  -4.728  1.00  0.00     0.117 C 
HETATM   23  H   UNL     1      -3.682  -3.000  -3.561  1.00  0.00     0.162 HD
ENDBRANCH  18  19
ENDBRANCH  17  18
ENDBRANCH  13  17
ENDBRANCH   6  13
BRANCH   2  24
HETATM   24  C   UNL     1       1.809   2.599  -0.067  1.00  0.00     0.172 C 
BRANCH  24  25
HETATM   25  C   UNL     1       2.050   3.204  -1.465  1.00  0.00     0.102 C 
HETATM   26  C   UNL     1       3.172   2.548  -2.300  1.00  0.00     0.153 C 
HETATM   27  O   UNL     1       3.771   3.592  -3.106  1.00  0.00    -0.383 OA
HETATM   28  C   UNL     1       2.743   1.437  -3.243  1.00  0.00     0.042 C 
HETATM   29  C   UNL     1       3.191   4.845  -2.727  1.00  0.00     0.171 C 
HETATM   30  C   UNL     1       2.597   4.626  -1.352  1.00  0.00     0.068 C 
BRANCH  25  31
HETATM   31  O   UNL     1       0.817   3.313  -2.189  1.00  0.00    -0.385 OA
HETATM   32  H   UNL     1       0.328   2.472  -2.123  1.00  0.00     0.210 HD
ENDBRANCH  25  31
ENDBRANCH  24  25
ENDBRANCH   2  24
TORSDOF 8
