REMARK  7 active torsions:
REMARK  status: ('A' for Active; 'I' for Inactive)
REMARK    1  A    between atoms: C_2  and  O_3 
REMARK    2  A    between atoms: O_3  and  C_4 
REMARK    3  A    between atoms: N_7  and  C_8 
REMARK    4  A    between atoms: C_8  and  C_9 
REMARK    5  A    between atoms: C_9  and  O_10 
REMARK    6  A    between atoms: C_9  and  C_11 
REMARK    7  A    between atoms: C_11  and  N_12 
ROOT
HETATM    1  C   UNL     1       7.046  -0.804  -4.624  1.00  0.00     0.164 C 
ENDROOT
BRANCH   1   2
HETATM    2  C   UNL     1       6.474  -1.851  -3.636  1.00  0.00     0.305 C 
BRANCH   2   3
HETATM    3  N   UNL     1       5.003  -1.948  -3.537  1.00  0.00     0.091 N 
HETATM    4  C   UNL     1       4.315  -0.717  -3.110  1.00  0.00     0.275 C 
HETATM    5  C   UNL     1       4.651  -0.314  -1.669  1.00  0.00     0.062 C 
HETATM    6  C   UNL     1       4.289  -1.442  -0.695  1.00  0.00     0.124 C 
HETATM    7  C   UNL     1       4.911  -2.764  -1.164  1.00  0.00     0.062 C 
HETATM    8  C   UNL     1       4.593  -3.044  -2.638  1.00  0.00     0.275 C 
BRANCH   6   9
HETATM    9  O   UNL     1       2.859  -1.499  -0.645  1.00  0.00    -0.386 OA
BRANCH   9  10
HETATM   10  C   UNL     1       2.338  -2.372   0.351  1.00  0.00     0.163 C 
HETATM   11  C   UNL     1       0.828  -2.260   0.332  1.00  0.00     0.033 C 
ENDBRANCH   9  10
ENDBRANCH   6   9
ENDBRANCH   2   3
ENDBRANCH   1   2
BRANCH   1  12
HETATM   12  O   UNL     1       6.690   0.529  -4.242  1.00  0.00    -0.392 OA
HETATM   13  H   UNL     1       6.875   0.648  -3.300  1.00  0.00     0.210 HD
ENDBRANCH   1  12
BRANCH   1  14
HETATM   14  C   UNL     1       8.581  -0.893  -4.637  1.00  0.00     0.163 C 
BRANCH  14  15
HETATM   15  N   UNL     1       9.157   0.058  -5.570  1.00  0.00    -0.339 N 
HETATM   16  C   UNL     1       9.468   1.357  -5.273  1.00  0.00     0.184 A 
HETATM   17  N   UNL     1       9.827   2.024  -6.345  1.00  0.00    -0.350 N 
HETATM   18  C   UNL     1       9.742   1.116  -7.370  1.00  0.00     0.060 A 
ATOM     19  HN  UNL     1      10.108   3.003  -6.403  1.00  0.00     0.166 HD
HETATM   20  C   UNL     1       9.961   1.299  -8.741  1.00  0.00     0.039 A 
HETATM   21  C   UNL     1       9.371  -0.140  -6.907  1.00  0.00     0.062 A 
HETATM   22  C   UNL     1       9.838   0.204  -9.622  1.00  0.00    -0.054 A 
HETATM   23  C   UNL     1      10.076   0.445 -11.087  1.00  0.00     0.049 C 
HETATM   24  C   UNL     1       9.509  -1.074  -9.118  1.00  0.00    -0.054 A 
HETATM   25  C   UNL     1       9.414  -2.297  -9.992  1.00  0.00     0.049 C 
HETATM   26  C   UNL     1       9.248  -1.252  -7.742  1.00  0.00     0.039 A 
ENDBRANCH  14  15
ENDBRANCH   1  14
TORSDOF 7
