REMARK  3 active torsions:
REMARK  status: ('A' for Active; 'I' for Inactive)
REMARK    1  A    between atoms: C_2  and  N_3 
REMARK    2  A    between atoms: C_8  and  N_9 
REMARK       I    between atoms: N_9  and  C_10 
REMARK       I    between atoms: C_10  and  N_12 
REMARK    3  A    between atoms: N_12  and  C_13 
ROOT
HETATM    1  N   UNL     1       3.749  -2.343  -3.956  1.00  0.00    -0.304 N 
HETATM    2  C   UNL     1       3.586  -3.587  -3.401  1.00  0.00     0.321 C 
HETATM    3  O   UNL     1       3.242  -3.809  -2.246  1.00  0.00    -0.247 OA
HETATM    4  N   UNL     1       3.880  -4.617  -4.267  1.00  0.00    -0.338 N 
HETATM    5  H   UNL     1       4.086  -2.269  -4.908  1.00  0.00     0.171 HD
HETATM    6  H   UNL     1       3.770  -4.436  -5.255  1.00  0.00     0.164 HD
ENDROOT
BRANCH   1   7
HETATM    7  C   UNL     1       3.558  -1.137  -3.310  1.00  0.00     0.102 A 
HETATM    8  C   UNL     1       3.812   0.129  -4.077  1.00  0.00     0.201 A 
HETATM    9  C   UNL     1       3.603   1.424  -3.372  1.00  0.00     0.074 A 
HETATM   10  O   UNL     1       4.174   0.099  -5.251  1.00  0.00    -0.286 OA
HETATM   11  C   UNL     1       3.177   1.398  -2.102  1.00  0.00     0.094 A 
HETATM   12  N   UNL     1       2.933   0.232  -1.395  1.00  0.00    -0.364 N 
HETATM   13  C   UNL     1       3.148  -0.979  -2.042  1.00  0.00     0.124 A 
BRANCH  12  14
HETATM   14  C   UNL     1       2.317   0.232  -0.058  1.00  0.00     0.123 C 
HETATM   15  C   UNL     1       0.807   0.080  -0.182  1.00  0.00     0.027 C 
ENDBRANCH  12  14
ENDBRANCH   1   7
BRANCH   4  16
HETATM   16  C   UNL     1       3.704  -5.990  -3.793  1.00  0.00     0.086 C 
HETATM   17  C   UNL     1       4.649  -6.960  -4.504  1.00  0.00     0.025 C 
HETATM   18  C   UNL     1       4.215  -7.276  -5.931  1.00  0.00     0.002 C 
HETATM   19  C   UNL     1       2.763  -7.740  -5.991  1.00  0.00     0.000 C 
HETATM   20  C   UNL     1       1.821  -6.735  -5.335  1.00  0.00     0.002 C 
HETATM   21  C   UNL     1       2.239  -6.438  -3.897  1.00  0.00     0.025 C 
ENDBRANCH   4  16
TORSDOF 3
