REMARK  4 active torsions:
REMARK  status: ('A' for Active; 'I' for Inactive)
REMARK    1  A    between atoms: C_2  and  C_3 
REMARK       I    between atoms: C_2  and  N_21 
REMARK    2  A    between atoms: C_3  and  N_4 
REMARK       I    between atoms: N_4  and  C_5 
REMARK       I    between atoms: C_5  and  N_7 
REMARK    3  A    between atoms: N_7  and  C_8 
REMARK    4  A    between atoms: C_11  and  N_15 
ROOT
HETATM    1  N   UNL     1       2.202   2.063   1.513  1.00  0.00    -0.334 N 
HETATM    2  C   UNL     1       2.806   2.898   2.428  1.00  0.00     0.321 C 
HETATM    3  O   UNL     1       3.989   2.763   2.725  1.00  0.00    -0.247 OA
HETATM    4  N   UNL     1       1.962   3.872   2.905  1.00  0.00    -0.308 N 
HETATM    5  H   UNL     1       1.211   1.881   1.591  1.00  0.00     0.164 HD
HETATM    6  H   UNL     1       1.105   4.011   2.390  1.00  0.00     0.170 HD
ENDROOT
BRANCH   4   7
HETATM    7  C   UNL     1       2.302   4.833   3.889  1.00  0.00     0.051 A 
HETATM    8  C   UNL     1       3.430   4.748   4.691  1.00  0.00     0.035 A 
HETATM    9  C   UNL     1       3.694   5.738   5.643  1.00  0.00     0.051 A 
HETATM   10  C   UNL     1       2.828   6.814   5.815  1.00  0.00     0.103 A 
HETATM   11  N   UNL     1       1.715   6.894   5.049  1.00  0.00    -0.350 N 
HETATM   12  C   UNL     1       1.482   5.929   4.117  1.00  0.00     0.119 A 
ATOM     13  HN  UNL     1       1.060   7.667   5.168  1.00  0.00     0.166 HD
BRANCH  10  14
HETATM   14  N   UNL     1       3.054   7.775   6.774  1.00  0.00    -0.367 N 
HETATM   15  C   UNL     1       4.370   8.112   7.309  1.00  0.00     0.124 C 
HETATM   16  C   UNL     1       4.348   7.948   8.829  1.00  0.00     0.020 C 
HETATM   17  C   UNL     1       3.206   8.752   9.454  1.00  0.00     0.003 C 
HETATM   18  C   UNL     1       1.868   8.430   8.785  1.00  0.00     0.020 C 
HETATM   19  C   UNL     1       1.945   8.588   7.262  1.00  0.00     0.124 C 
ENDBRANCH  10  14
ENDBRANCH   4   7
BRANCH   1  20
HETATM   20  C   UNL     1       3.019   0.980   0.986  1.00  0.00     0.227 C 
BRANCH  20  21
HETATM   21  C   UNL     1       2.338   0.087  -0.052  1.00  0.00     0.237 C 
HETATM   22  O   UNL     1       1.149   0.242  -0.338  1.00  0.00    -0.272 OA
HETATM   23  N   UNL     1       3.141  -0.889  -0.642  1.00  0.00    -0.351 N 
HETATM   24  C   UNL     1       2.648  -1.646  -1.790  1.00  0.00     0.126 C 
HETATM   25  C   UNL     1       4.482  -1.266  -0.183  1.00  0.00     0.126 C 
HETATM   26  C   UNL     1       2.692  -3.149  -1.525  1.00  0.00     0.020 C 
HETATM   27  C   UNL     1       4.070  -3.594  -1.033  1.00  0.00     0.003 C 
HETATM   28  C   UNL     1       4.516  -2.754   0.162  1.00  0.00     0.020 C 
ENDBRANCH  20  21
ENDBRANCH   1  20
TORSDOF 4
