REMARK  6 active torsions:
REMARK  status: ('A' for Active; 'I' for Inactive)
REMARK    1  A    between atoms: C_5  and  C_6 
REMARK    2  A    between atoms: C_6  and  C_7 
REMARK       I    between atoms: C_7  and  N_9 
REMARK    3  A    between atoms: N_9  and  C_10 
REMARK    4  A    between atoms: C_10  and  C_12 
REMARK    5  A    between atoms: C_10  and  C_14 
REMARK    6  A    between atoms: C_12  and  O_13 
ROOT
HETATM    1  C   UNL     1       7.339  -1.368  -0.151  1.00  0.00     0.222 C 
HETATM    2  O   UNL     1       6.565  -2.224   0.265  1.00  0.00    -0.273 OA
HETATM    3  N   UNL     1       8.571  -1.651  -0.706  1.00  0.00    -0.349 N 
HETATM    4  H   UNL     1       9.056  -0.878  -1.138  1.00  0.00     0.163 HD
ENDROOT
BRANCH   3   5
HETATM    5  C   UNL     1       9.162  -3.003  -0.835  1.00  0.00     0.054 C 
HETATM    6  C   UNL     1       9.203  -3.681   0.561  1.00  0.00     0.041 C 
BRANCH   5   7
HETATM    7  C   UNL     1       8.250  -3.892  -1.738  1.00  0.00     0.195 C 
BRANCH   7   8
HETATM    8  O   UNL     1       8.016  -3.313  -3.017  1.00  0.00    -0.398 OA
HETATM    9  H   UNL     1       7.705  -2.405  -2.858  1.00  0.00     0.209 HD
ENDBRANCH   7   8
ENDBRANCH   5   7
BRANCH   5  10
HETATM   10  C   UNL     1      10.653  -2.958  -1.398  1.00  0.00     0.015 C 
HETATM   11  C   UNL     1      11.688  -2.252  -0.490  1.00  0.00     0.007 C 
HETATM   12  C   UNL     1      11.634  -0.730  -0.557  1.00  0.00     0.000 C 
HETATM   13  C   UNL     1      11.733  -0.206  -1.988  1.00  0.00     0.000 C 
HETATM   14  C   UNL     1      10.835  -0.929  -2.990  1.00  0.00     0.000 C 
HETATM   15  C   UNL     1      10.879  -2.445  -2.837  1.00  0.00     0.007 C 
ENDBRANCH   5  10
ENDBRANCH   3   5
BRANCH   1  16
HETATM   16  C   UNL     1       6.984   0.108  -0.117  1.00  0.00     0.142 C 
BRANCH  16  17
HETATM   17  C   UNL     1       6.349   0.625  -1.380  1.00  0.00    -0.034 A 
HETATM   18  C   UNL     1       6.469   1.974  -1.726  1.00  0.00     0.011 A 
HETATM   19  C   UNL     1       5.856   2.457  -2.880  1.00  0.00     0.025 A 
HETATM   20  C   UNL     1       5.124   1.577  -3.668  1.00  0.00     0.005 A 
HETATM   21  C   UNL     1       4.470   2.034  -4.936  1.00  0.00     0.068 C 
HETATM   22  N   UNL     1       4.972   0.273  -3.343  1.00  0.00    -0.369 N 
HETATM   23  C   UNL     1       5.562  -0.168  -2.208  1.00  0.00     0.095 A 
ATOM     24  HN  UNL     1       4.430  -0.357  -3.934  1.00  0.00     0.165 HD
ENDBRANCH  16  17
ENDBRANCH   1  16
TORSDOF 6
