REMARK  4 active torsions:
REMARK  status: ('A' for Active; 'I' for Inactive)
REMARK    1  A    between atoms: N_1  and  C1*_4 
REMARK    2  A    between atoms: C4*_10  and  C5*_16 
REMARK    3  A    between atoms: C3*_11  and  O3*_15 
REMARK    4  A    between atoms: C5*_16  and  O5*_17 
ROOT
HETATM    1  N   UNL     1      -0.595  -1.281  -0.007  1.00  0.00    -0.279 N 
HETATM    2  C   UNL     1      -0.261  -0.666  -1.211  1.00  0.00     0.331 A 
HETATM    3  N   UNL     1       0.451   0.503  -1.109  1.00  0.00    -0.273 N 
HETATM    4  C   UNL     1      -0.174  -0.763   1.203  1.00  0.00     0.146 A 
HETATM    5  C   UNL     1       0.551   0.352   1.279  1.00  0.00     0.199 A 
HETATM    6  C   UNL     1       0.917   1.073   0.047  1.00  0.00     0.289 A 
HETATM    7  O   UNL     1      -0.567  -1.111  -2.314  1.00  0.00    -0.246 OA
HETATM    8  O   UNL     1       1.587   2.099   0.050  1.00  0.00    -0.265 OA
HETATM    9  F   UNL     1       0.970   0.862   2.452  1.00  0.00    -0.199 F 
HETATM   10  H   UNL     1       0.687   0.966  -1.973  1.00  0.00     0.173 HD
ENDROOT
BRANCH   1  11
HETATM   11  C1* UNL     1      -1.370  -2.511  -0.082  1.00  0.00     0.235 C 
HETATM   12  O4* UNL     1      -2.188  -2.684   1.089  1.00  0.00    -0.356 OA
HETATM   13  C4* UNL     1      -2.392  -4.108   1.283  1.00  0.00     0.176 C 
HETATM   14  C3* UNL     1      -1.530  -4.828   0.240  1.00  0.00     0.153 C 
HETATM   15  C2* UNL     1      -0.534  -3.775  -0.194  1.00  0.00     0.088 C 
BRANCH  13  16
HETATM   16  C5* UNL     1      -2.020  -4.458   2.726  1.00  0.00     0.198 C 
BRANCH  16  17
HETATM   17  O5* UNL     1      -0.647  -4.191   2.991  1.00  0.00    -0.398 OA
HETATM   18  H5* UNL     1      -0.558  -3.222   3.005  1.00  0.00     0.209 HD
ENDBRANCH  16  17
ENDBRANCH  13  16
BRANCH  14  19
HETATM   19  O3* UNL     1      -2.319  -5.232  -0.885  1.00  0.00    -0.393 OA
HETATM   20  H3* UNL     1      -2.922  -4.514  -1.144  1.00  0.00     0.210 HD
ENDBRANCH  14  19
ENDBRANCH   1  11
TORSDOF 4
