REMARK  7 active torsions:
REMARK  status: ('A' for Active; 'I' for Inactive)
REMARK    1  A    between atoms: O_2  and  C_3 
REMARK    2  A    between atoms: C_3  and  C_4 
REMARK    3  A    between atoms: C_4  and  N_5 
REMARK    4  A    between atoms: C_7  and  N_8 
REMARK       I    between atoms: N_8  and  C_9 
REMARK    5  A    between atoms: C_9  and  C_11 
REMARK    6  A    between atoms: C_11  and  O_12 
REMARK    7  A    between atoms: O_12  and  C_13 
ROOT
HETATM    1  N   UNL     1       5.241   2.763  -5.116  1.00  0.00    -0.324 N 
HETATM    2  C   UNL     1       5.110   3.934  -4.371  1.00  0.00     0.245 C 
HETATM    3  O   UNL     1       5.010   3.958  -3.147  1.00  0.00    -0.271 OA
HETATM    4  H   UNL     1       4.939   2.814  -6.082  1.00  0.00     0.169 HD
ENDROOT
BRANCH   1   5
HETATM    5  C   UNL     1       5.272   1.517  -4.533  1.00  0.00     0.050 A 
HETATM    6  C   UNL     1       5.972   1.228  -3.419  1.00  0.00     0.123 A 
HETATM    7  N   UNL     1       5.905  -0.019  -2.818  1.00  0.00    -0.320 N 
HETATM    8  C   UNL     1       5.046  -1.016  -3.286  1.00  0.00     0.247 A 
HETATM    9  C   UNL     1       4.303  -0.699  -4.532  1.00  0.00     0.077 A 
HETATM   10  O   UNL     1       4.890  -2.112  -2.760  1.00  0.00    -0.268 OA
HETATM   11  C   UNL     1       4.451   0.489  -5.130  1.00  0.00     0.036 A 
BRANCH   7  12
HETATM   12  C   UNL     1       6.660  -0.264  -1.583  1.00  0.00     0.158 C 
BRANCH  12  13
HETATM   13  C   UNL     1       7.713  -1.369  -1.721  1.00  0.00     0.187 C 
BRANCH  13  14
HETATM   14  O   UNL     1       8.444  -1.478  -0.495  1.00  0.00    -0.394 OA
HETATM   15  C   UNL     1       9.373  -2.554  -0.536  1.00  0.00     0.201 C 
ENDBRANCH  13  14
ENDBRANCH  12  13
ENDBRANCH   7  12
ENDBRANCH   1   5
BRANCH   2  16
HETATM   16  C   UNL     1       5.076   5.197  -5.238  1.00  0.00     0.271 C 
BRANCH  16  17
HETATM   17  O   UNL     1       4.825   6.335  -4.429  1.00  0.00    -0.376 OA
BRANCH  17  18
HETATM   18  C   UNL     1       4.829   7.596  -5.096  1.00  0.00     0.125 C 
HETATM   19  C   UNL     1       6.218   7.935  -5.659  1.00  0.00     0.032 C 
HETATM   20  C   UNL     1       7.264   8.007  -4.547  1.00  0.00     0.002 C 
HETATM   21  C   UNL     1       6.875   9.046  -3.502  1.00  0.00     0.001 C 
HETATM   22  C   UNL     1       5.476   8.795  -2.943  1.00  0.00     0.007 C 
HETATM   23  C   UNL     1       4.425   8.678  -4.063  1.00  0.00     0.011 C 
HETATM   24  C   UNL     1       3.048   8.411  -3.450  1.00  0.00     0.012 C 
ENDBRANCH  17  18
ENDBRANCH  16  17
ENDBRANCH   2  16
TORSDOF 7
