REMARK  4 active torsions:
REMARK  status: ('A' for Active; 'I' for Inactive)
REMARK       I    between atoms: N_2  and  C_3 
REMARK    1  A    between atoms: C_3  and  C_5 
REMARK    2  A    between atoms: C_5  and  C_6 
REMARK    3  A    between atoms: C_10  and  C_11 
REMARK    4  A    between atoms: C_11  and  C_12 
ROOT
HETATM    1  C   UNL     1       5.161  -2.562   1.467  1.00  0.00     0.112 A 
HETATM    2  N   UNL     1       4.921  -3.690   0.787  1.00  0.00    -0.247 N 
ATOM      3  HN  UNL     1       4.446  -3.800  -0.109  1.00  0.00     0.196 HD
HETATM    4  O   UNL     1       5.476  -4.678   1.597  1.00  0.00    -0.223 OA
HETATM    5  C   UNL     1       5.987  -4.043   2.692  1.00  0.00     0.148 A 
HETATM    6  N   UNL     1       5.832  -2.737   2.657  1.00  0.00    -0.326 N 
ATOM      7  HN  UNL     1       6.131  -2.036   3.335  1.00  0.00     0.169 HD
ENDROOT
BRANCH   1   8
HETATM    8  C   UNL     1       4.704  -1.235   1.001  1.00  0.00     0.181 C 
BRANCH   8   9
HETATM    9  C   UNL     1       5.785  -0.527   0.216  1.00  0.00     0.224 C 
HETATM   10  N   UNL     1       6.923  -0.221   0.937  1.00  0.00    -0.365 N 
HETATM   11  C   UNL     1       8.052   0.397   0.294  1.00  0.00     0.149 C 
HETATM   12  H   UNL     1       7.064  -0.684   1.830  1.00  0.00     0.161 HD
HETATM   13  O   UNL     1       5.631  -0.194  -0.956  1.00  0.00    -0.273 OA
ENDBRANCH   8   9
ENDBRANCH   1   8
BRANCH   5  14
HETATM   14  C   UNL     1       6.594  -4.907   3.731  1.00  0.00     0.091 C 
BRANCH  14  15
HETATM   15  C   UNL     1       8.078  -5.116   3.480  1.00  0.00    -0.007 C 
HETATM   16  C   UNL     1       8.812  -6.027   4.503  1.00  0.00     0.005 C 
HETATM   17  C   UNL     1      10.049  -5.130   4.292  1.00  0.00     0.001 C 
HETATM   18  C   UNL     1       9.063  -3.998   3.930  1.00  0.00     0.005 C 
ENDBRANCH  14  15
ENDBRANCH   5  14
TORSDOF 4
