REMARK  6 active torsions:
REMARK  status: ('A' for Active; 'I' for Inactive)
REMARK    1  A    between atoms: C_2  and  C_3 
REMARK    2  A    between atoms: C_6  and  C_7 
REMARK    3  A    between atoms: C_7  and  C_8 
REMARK       I    between atoms: C_8  and  N_10 
REMARK    4  A    between atoms: N_10  and  C_11 
REMARK    5  A    between atoms: C_11  and  C_12 
REMARK    6  A    between atoms: C_16  and  O_17 
ROOT
HETATM    1  C   UNL     1       3.646  -3.355  -5.514  1.00  0.00     0.223 C 
HETATM    2  O   UNL     1       2.602  -4.006  -5.482  1.00  0.00    -0.273 OA
HETATM    3  N   UNL     1       4.840  -3.881  -5.959  1.00  0.00    -0.360 N 
HETATM    4  H   UNL     1       5.672  -3.296  -5.878  1.00  0.00     0.162 HD
ENDROOT
BRANCH   1   5
HETATM    5  C   UNL     1       3.644  -1.880  -5.157  1.00  0.00     0.160 C 
BRANCH   5   6
HETATM    6  C   UNL     1       4.871  -1.412  -4.446  1.00  0.00     0.025 A 
HETATM    7  N   UNL     1       6.085  -1.408  -5.124  1.00  0.00    -0.356 N 
HETATM    8  C   UNL     1       7.027  -0.891  -4.361  1.00  0.00     0.050 A 
ATOM      9  HN  UNL     1       6.226  -1.754  -6.073  1.00  0.00     0.166 HD
HETATM   10  S   UNL     1       6.528  -0.431  -2.782  1.00  0.00    -0.087 SA
HETATM   11  C   UNL     1       4.932  -0.922  -3.155  1.00  0.00     0.077 A 
BRANCH   8  12
HETATM   12  C   UNL     1       8.443  -0.684  -4.799  1.00  0.00     0.060 C 
HETATM   13  C   UNL     1       9.303  -1.905  -4.517  1.00  0.00     0.012 C 
ENDBRANCH   8  12
ENDBRANCH   5   6
ENDBRANCH   1   5
BRANCH   3  14
HETATM   14  C   UNL     1       4.975  -5.279  -6.301  1.00  0.00     0.127 C 
BRANCH  14  15
HETATM   15  C   UNL     1       5.457  -5.512  -7.745  1.00  0.00     0.006 C 
HETATM   16  C   UNL     1       4.598  -4.804  -8.810  1.00  0.00     0.006 C 
HETATM   17  C   UNL     1       3.206  -5.414  -8.962  1.00  0.00     0.003 C 
HETATM   18  C   UNL     1       3.269  -6.917  -9.217  1.00  0.00     0.032 C 
HETATM   19  C   UNL     1       4.112  -7.640  -8.167  1.00  0.00     0.118 C 
HETATM   20  C   UNL     1       5.509  -7.020  -8.047  1.00  0.00     0.038 C 
BRANCH  19  21
HETATM   21  O   UNL     1       4.231  -9.018  -8.501  1.00  0.00    -0.396 OA
HETATM   22  H   UNL     1       4.624  -9.082  -9.388  1.00  0.00     0.210 HD
ENDBRANCH  19  21
ENDBRANCH  14  15
ENDBRANCH   3  14
TORSDOF 6
