REMARK  5 active torsions:
REMARK  status: ('A' for Active; 'I' for Inactive)
REMARK    1  A    between atoms: C_5  and  C_6 
REMARK    2  A    between atoms: C_6  and  C_7 
REMARK    3  A    between atoms: C_7  and  N_8 
REMARK       I    between atoms: N_8  and  C_9 
REMARK       I    between atoms: C_9  and  N_11 
REMARK    4  A    between atoms: N_11  and  C_12 
REMARK    5  A    between atoms: C_12  and  C_13 
ROOT
HETATM    1  N   UNL     1       5.998  -4.460  -0.060  1.00  0.00    -0.343 N 
HETATM    2  C   UNL     1       5.506  -5.735  -0.115  1.00  0.00     0.316 C 
HETATM    3  O   UNL     1       4.310  -6.000  -0.111  1.00  0.00    -0.247 OA
HETATM    4  N   UNL     1       6.496  -6.671  -0.179  1.00  0.00    -0.341 N 
HETATM    5  H   UNL     1       6.972  -4.319  -0.281  1.00  0.00     0.164 HD
HETATM    6  H   UNL     1       7.427  -6.420   0.123  1.00  0.00     0.164 HD
ENDROOT
BRANCH   1   7
HETATM    7  C   UNL     1       5.103  -3.315  -0.083  1.00  0.00     0.131 C 
BRANCH   7   8
HETATM    8  C   UNL     1       4.622  -2.940   1.317  1.00  0.00     0.084 C 
BRANCH   8   9
HETATM    9  C   UNL     1       3.655  -1.801   1.269  1.00  0.00     0.053 A 
HETATM   10  N   UNL     1       4.003  -0.532   1.292  1.00  0.00    -0.357 N 
HETATM   11  C   UNL     1       2.875   0.273   1.252  1.00  0.00     0.018 A 
ATOM     12  HN  UNL     1       4.963  -0.190   1.333  1.00  0.00     0.166 HD
HETATM   13  C   UNL     1       3.056   1.749   1.286  1.00  0.00     0.069 C 
HETATM   14  C   UNL     1       1.673  -0.411   1.185  1.00  0.00     0.003 A 
HETATM   15  S   UNL     1       1.966  -2.098   1.184  1.00  0.00    -0.080 SA
HETATM   16  C   UNL     1       0.287   0.125   1.125  1.00  0.00     0.058 C 
ENDBRANCH   8   9
ENDBRANCH   7   8
ENDBRANCH   1   7
BRANCH   4  17
HETATM   17  C   UNL     1       6.205  -8.094  -0.250  1.00  0.00     0.156 C 
BRANCH  17  18
HETATM   18  C   UNL     1       6.711  -8.859   0.973  1.00  0.00     0.139 C 
HETATM   19  C   UNL     1       6.149  -8.408   2.314  1.00  0.00     0.035 C 
HETATM   20  C   UNL     1       7.308  -8.557   3.281  1.00  0.00     0.029 C 
HETATM   21  C   UNL     1       8.461  -9.062   2.439  1.00  0.00     0.168 C 
HETATM   22  O   UNL     1       8.140  -8.715   1.089  1.00  0.00    -0.384 OA
ENDBRANCH  17  18
ENDBRANCH   4  17
TORSDOF 5
