REMARK  1 active torsions:
REMARK  status: ('A' for Active; 'I' for Inactive)
REMARK    1  A    between atoms: C_4  and  C_7 
ROOT
HETATM    1  C   UNL     1       0.785   1.264  -0.443  1.00  0.00     0.299 C 
HETATM    2  C   UNL     1       1.472   0.018   0.156  1.00  0.00     0.300 C 
HETATM    3  N   UNL     1       0.728  -1.220  -0.106  1.00  0.00     0.095 N 
HETATM    4  C   UNL     1      -0.679  -1.126   0.350  1.00  0.00     0.281 C 
HETATM    5  C   UNL     1      -1.323   0.132  -0.330  1.00  0.00     0.309 C 
HETATM    6  N   UNL     1      -0.625   1.404  -0.034  1.00  0.00     0.087 N 
HETATM    7  H   UNL     1       1.198  -2.022   0.297  1.00  0.00     0.316 HD
HETATM    8  H   UNL     1      -0.639   1.540   0.978  1.00  0.00     0.316 HD
ENDROOT
BRANCH   4   9
HETATM    9  C   UNL     1      -0.846  -1.224   1.872  1.00  0.00    -0.021 A 
HETATM   10  C   UNL     1      -1.882  -0.567   2.554  1.00  0.00     0.026 A 
HETATM   11  C   UNL     1      -2.018  -0.737   3.926  1.00  0.00     0.088 A 
HETATM   12  N   UNL     1      -1.210  -1.513   4.673  1.00  0.00    -0.375 N 
HETATM   13  C   UNL     1      -0.233  -2.162   4.013  1.00  0.00     0.088 A 
ATOM     14  HN  UNL     1      -1.331  -1.604   5.682  1.00  0.00     0.164 HD
HETATM   15  C   UNL     1      -0.024  -2.062   2.644  1.00  0.00     0.026 A 
ENDBRANCH   4   9
TORSDOF 1
