REMARK  5 active torsions:
REMARK  status: ('A' for Active; 'I' for Inactive)
REMARK    1  A    between atoms: C_8  and  C_9 
REMARK    2  A    between atoms: C_9  and  N_10 
REMARK    3  A    between atoms: N_10  and  C_11 
REMARK    4  A    between atoms: C_11  and  C_12 
REMARK    5  A    between atoms: C_12  and  C_13 
ROOT
HETATM    1  N   UNL     1       0.829  -2.487   0.233  1.00  0.00     0.084 N 
HETATM    2  H   UNL     1       0.535  -1.624   0.691  1.00  0.00     0.315 HD
ENDROOT
BRANCH   1   3
HETATM    3  C   UNL     1       1.629  -2.147  -0.947  1.00  0.00     0.279 C 
BRANCH   3   4
HETATM    4  C   UNL     1       2.831  -1.216  -0.614  1.00  0.00     0.045 C 
HETATM    5  C   UNL     1       4.029  -1.901   0.133  1.00  0.00    -0.009 C 
HETATM    6  C   UNL     1       3.956  -3.435   0.249  1.00  0.00     0.011 C 
HETATM    7  C   UNL     1       4.476  -1.323   1.488  1.00  0.00     0.009 C 
HETATM    8  C   UNL     1       3.833  -0.048   2.005  1.00  0.00     0.028 C 
HETATM    9  C   UNL     1       2.836   0.610   1.127  1.00  0.00    -0.024 C 
HETATM   10  C   UNL     1       2.375   0.119  -0.030  1.00  0.00    -0.081 C 
HETATM   11  C   UNL     1       1.360   0.912  -0.819  1.00  0.00     0.043 C 
ENDBRANCH   3   4
ENDBRANCH   1   3
BRANCH   1  12
HETATM   12  C   UNL     1      -0.344  -3.286  -0.127  1.00  0.00     0.275 C 
BRANCH  12  13
HETATM   13  C   UNL     1      -1.151  -3.610   1.135  1.00  0.00     0.088 C 
BRANCH  13  14
HETATM   14  C   UNL     1      -2.348  -4.447   0.835  1.00  0.00     0.031 A 
HETATM   15  C   UNL     1      -3.634  -4.082   0.500  1.00  0.00     0.045 A 
HETATM   16  C   UNL     1      -4.333  -5.292   0.363  1.00  0.00     0.109 A 
HETATM   17  N   UNL     1      -3.557  -6.353   0.583  1.00  0.00    -0.310 N 
HETATM   18  N   UNL     1      -2.357  -5.822   0.871  1.00  0.00    -0.301 N 
ATOM     19  HN  UNL     1      -3.814  -7.339   0.542  1.00  0.00     0.186 HD
HETATM   20  C   UNL     1      -1.247  -6.699   1.168  1.00  0.00     0.177 C 
ENDBRANCH  13  14
ENDBRANCH  12  13
ENDBRANCH   1  12
TORSDOF 5
