REMARK  4 active torsions:
REMARK  status: ('A' for Active; 'I' for Inactive)
REMARK    1  A    between atoms: C_2  and  C_3 
REMARK    2  A    between atoms: N_9  and  C_10 
REMARK    3  A    between atoms: C_10  and  C_11 
REMARK    4  A    between atoms: C_11  and  N_12 
REMARK       I    between atoms: N_12  and  C_13 
REMARK       I    between atoms: C_13  and  N_15 
ROOT
HETATM    1  N   UNL     1       0.584  -4.798   2.078  1.00  0.00    -0.341 N 
HETATM    2  C   UNL     1       0.255  -6.107   2.339  1.00  0.00     0.318 C 
HETATM    3  O   UNL     1       0.741  -7.030   1.691  1.00  0.00    -0.247 OA
HETATM    4  N   UNL     1      -0.680  -6.287   3.350  1.00  0.00    -0.334 N 
HETATM    5  C   UNL     1      -1.171  -7.648   3.576  1.00  0.00     0.127 C 
HETATM    6  C   UNL     1      -0.380  -8.367   4.663  1.00  0.00     0.020 C 
HETATM    7  C   UNL     1      -0.893  -8.129   6.085  1.00  0.00     0.006 C 
HETATM    8  C   UNL     1      -1.429  -6.724   6.407  1.00  0.00    -0.017 C 
HETATM    9  C   UNL     1      -1.509  -6.545   7.927  1.00  0.00     0.010 C 
HETATM   10  C   UNL     1      -0.605  -5.593   5.772  1.00  0.00     0.024 C 
HETATM   11  C   UNL     1      -1.051  -5.273   4.340  1.00  0.00     0.128 C 
HETATM   12  H   UNL     1      -0.213  -4.183   2.146  1.00  0.00     0.164 HD
ENDROOT
BRANCH   1  13
HETATM   13  C   UNL     1       1.537  -4.511   1.018  1.00  0.00     0.144 C 
BRANCH  13  14
HETATM   14  C   UNL     1       1.891  -3.031   0.900  1.00  0.00     0.151 C 
BRANCH  14  15
HETATM   15  N   UNL     1       2.588  -2.505   2.053  1.00  0.00    -0.329 N 
HETATM   16  C   UNL     1       3.940  -2.434   2.271  1.00  0.00     0.098 A 
HETATM   17  N   UNL     1       4.145  -1.818   3.418  1.00  0.00    -0.288 N 
HETATM   18  N   UNL     1       2.925  -1.480   3.952  1.00  0.00    -0.295 N 
ATOM     19  HN  UNL     1       5.054  -1.625   3.838  1.00  0.00     0.188 HD
HETATM   20  C   UNL     1       2.002  -1.896   3.121  1.00  0.00     0.201 A 
ATOM     21  HN  UNL     1       2.767  -0.994   4.835  1.00  0.00     0.187 HD
BRANCH  16  22
HETATM   22  C   UNL     1       4.992  -2.962   1.360  1.00  0.00     0.073 C 
HETATM   23  C   UNL     1       5.450  -1.909   0.364  1.00  0.00     0.013 C 
ENDBRANCH  16  22
ENDBRANCH  14  15
ENDBRANCH  13  14
ENDBRANCH   1  13
TORSDOF 4
