REMARK  6 active torsions:
REMARK  status: ('A' for Active; 'I' for Inactive)
REMARK    1  A    between atoms: O_2  and  C_3 
REMARK    2  A    between atoms: C_3  and  C_4 
REMARK    3  A    between atoms: C_4  and  O_5 
REMARK    4  A    between atoms: O_5  and  C_6 
REMARK    5  A    between atoms: C_12  and  N_13 
REMARK    6  A    between atoms: N_13  and  C_14 
ROOT
HETATM    1  C   UNL     1       5.987   1.678   2.854  1.00  0.00     0.169 A 
HETATM    2  N   UNL     1       6.518   2.896   3.153  1.00  0.00    -0.345 N 
ATOM      3  HN  UNL     1       5.915   3.701   3.323  1.00  0.00     0.167 HD
HETATM    4  C   UNL     1       7.855   3.011   3.218  1.00  0.00     0.090 A 
HETATM    5  C   UNL     1       8.714   1.952   3.031  1.00  0.00     0.019 A 
HETATM    6  C   UNL     1       8.163   0.712   2.716  1.00  0.00     0.035 A 
HETATM    7  C   UNL     1       6.773   0.537   2.561  1.00  0.00     0.080 A 
ENDROOT
BRANCH   7   8
HETATM    8  N   UNL     1       6.354  -0.762   2.238  1.00  0.00    -0.382 N 
HETATM    9  H   UNL     1       7.053  -1.276   1.709  1.00  0.00     0.160 HD
BRANCH   8  10
HETATM   10  C   UNL     1       4.972  -1.133   1.936  1.00  0.00     0.083 C 
HETATM   11  C   UNL     1       4.789  -2.651   2.146  1.00  0.00     0.035 C 
HETATM   12  C   UNL     1       5.188  -3.567   0.998  1.00  0.00     0.076 C 
HETATM   13  S   UNL     1       4.347  -3.124  -0.538  1.00  0.00    -0.169 SA
HETATM   14  C   UNL     1       4.956  -1.426  -0.648  1.00  0.00     0.076 C 
HETATM   15  C   UNL     1       4.533  -0.607   0.559  1.00  0.00     0.035 C 
ENDBRANCH   8  10
ENDBRANCH   7   8
BRANCH   1  16
HETATM   16  O   UNL     1       4.607   1.591   2.896  1.00  0.00    -0.332 OA
BRANCH  16  17
HETATM   17  C   UNL     1       3.922   2.804   2.558  1.00  0.00     0.203 C 
BRANCH  17  18
HETATM   18  C   UNL     1       2.762   3.108   3.514  1.00  0.00     0.193 C 
BRANCH  18  19
HETATM   19  O   UNL     1       3.223   3.407   4.834  1.00  0.00    -0.394 OA
HETATM   20  C   UNL     1       2.160   3.826   5.681  1.00  0.00     0.201 C 
ENDBRANCH  18  19
ENDBRANCH  17  18
ENDBRANCH  16  17
ENDBRANCH   1  16
TORSDOF 6
