REMARK  3 active torsions:
REMARK  status: ('A' for Active; 'I' for Inactive)
REMARK    1  A    between atoms: N_7  and  C_8 
REMARK    2  A    between atoms: C_8  and  C_9 
REMARK       I    between atoms: C_9  and  N_11 
REMARK    3  A    between atoms: N_11  and  C_12 
ROOT
HETATM    1  C   UNL     1       1.533  -4.259   0.662  1.00  0.00     0.236 C 
HETATM    2  O   UNL     1       1.125  -4.732   1.719  1.00  0.00    -0.272 OA
HETATM    3  N   UNL     1       0.698  -3.864  -0.373  1.00  0.00    -0.355 N 
HETATM    4  H   UNL     1       1.091  -3.902  -1.315  1.00  0.00     0.162 HD
ENDROOT
BRANCH   1   5
HETATM    5  C   UNL     1       3.030  -4.054   0.395  1.00  0.00     0.235 C 
BRANCH   5   6
HETATM    6  N   UNL     1       3.672  -5.214  -0.193  1.00  0.00    -0.303 N 
HETATM    7  C   UNL     1       4.758  -5.901   0.345  1.00  0.00     0.018 A 
HETATM    8  C   UNL     1       5.344  -5.586   1.683  1.00  0.00     0.069 C 
HETATM    9  C   UNL     1       5.247  -6.836  -0.481  1.00  0.00     0.080 A 
HETATM   10  S   UNL     1       4.385  -6.906  -1.982  1.00  0.00    -0.039 SA
HETATM   11  C   UNL     1       3.342  -5.570  -1.493  1.00  0.00     0.290 A 
HETATM   12  O   UNL     1       2.506  -5.048  -2.217  1.00  0.00    -0.259 OA
ENDBRANCH   5   6
ENDBRANCH   1   5
BRANCH   3  13
HETATM   13  C   UNL     1      -0.761  -3.905  -0.232  1.00  0.00     0.084 C 
HETATM   14  C   UNL     1      -1.312  -5.265  -0.680  1.00  0.00     0.025 C 
HETATM   15  C   UNL     1      -2.781  -5.544  -0.340  1.00  0.00     0.002 C 
HETATM   16  C   UNL     1      -3.196  -5.156   1.081  1.00  0.00     0.000 C 
HETATM   17  C   UNL     1      -3.976  -3.842   1.196  1.00  0.00     0.000 C 
HETATM   18  C   UNL     1      -3.249  -2.540   0.842  1.00  0.00     0.000 C 
HETATM   19  C   UNL     1      -2.861  -2.397  -0.632  1.00  0.00     0.002 C 
HETATM   20  C   UNL     1      -1.396  -2.716  -0.968  1.00  0.00     0.025 C 
ENDBRANCH   3  13
TORSDOF 3
