REMARK  4 active torsions:
REMARK  status: ('A' for Active; 'I' for Inactive)
REMARK    1  A    between atoms: C_2  and  C_4 
REMARK    2  A    between atoms: C_4  and  N_5 
REMARK    3  A    between atoms: C_8  and  N_11 
REMARK       I    between atoms: N_11  and  C_12 
REMARK       I    between atoms: C_12  and  N_14 
REMARK    4  A    between atoms: N_14  and  C_15 
ROOT
HETATM    1  N   UNL     1       6.700   0.103  -2.320  1.00  0.00    -0.338 N 
HETATM    2  C   UNL     1       6.965   0.891  -3.425  1.00  0.00     0.321 C 
HETATM    3  O   UNL     1       6.090   1.540  -3.987  1.00  0.00    -0.247 OA
HETATM    4  N   UNL     1       8.275   0.807  -3.834  1.00  0.00    -0.306 N 
HETATM    5  H   UNL     1       7.443   0.006  -1.646  1.00  0.00     0.164 HD
HETATM    6  H   UNL     1       8.840   0.045  -3.490  1.00  0.00     0.171 HD
ENDROOT
BRANCH   1   7
HETATM    7  C   UNL     1       5.315   0.032  -1.840  1.00  0.00     0.089 C 
HETATM    8  C   UNL     1       4.958   1.211  -0.922  1.00  0.00     0.055 C 
HETATM    9  C   UNL     1       5.154   0.928   0.568  1.00  0.00     0.275 C 
HETATM   10  N   UNL     1       4.612  -0.357   1.026  1.00  0.00     0.092 N 
HETATM   11  C   UNL     1       5.218  -1.445   0.249  1.00  0.00     0.275 C 
HETATM   12  C   UNL     1       4.981  -1.341  -1.254  1.00  0.00     0.055 C 
BRANCH  10  13
HETATM   13  C   UNL     1       3.141  -0.423   1.027  1.00  0.00     0.305 C 
BRANCH  13  14
HETATM   14  C   UNL     1       2.471   0.381   2.124  1.00  0.00    -0.065 C 
HETATM   15  C   UNL     1       2.875   0.073   3.542  1.00  0.00     0.044 C 
HETATM   16  C   UNL     1       1.503   1.277   1.869  1.00  0.00     0.015 C 
ENDBRANCH  13  14
ENDBRANCH  10  13
ENDBRANCH   1   7
BRANCH   4  17
HETATM   17  C   UNL     1       8.730   1.483  -4.959  1.00  0.00     0.070 A 
HETATM   18  C   UNL     1       8.141   2.543  -5.688  1.00  0.00     0.138 A 
HETATM   19  N   UNL     1       8.862   2.890  -6.758  1.00  0.00    -0.308 N 
HETATM   20  N   UNL     1       9.896   2.036  -6.727  1.00  0.00    -0.306 N 
ATOM     21  HN  UNL     1       8.672   3.628  -7.436  1.00  0.00     0.186 HD
HETATM   22  C   UNL     1      10.815   1.996  -7.838  1.00  0.00     0.177 C 
HETATM   23  C   UNL     1       9.901   1.217  -5.629  1.00  0.00     0.140 A 
ENDBRANCH   4  17
TORSDOF 4
