REMARK  6 active torsions:
REMARK  status: ('A' for Active; 'I' for Inactive)
REMARK    1  A    between atoms: C_2  and  C_3 
REMARK    2  A    between atoms: C_3  and  O_5 
REMARK    3  A    between atoms: C_3  and  C_6 
REMARK    4  A    between atoms: C_6  and  N_7 
REMARK       I    between atoms: N_7  and  C_8 
REMARK       I    between atoms: C_8  and  N_10 
REMARK    5  A    between atoms: N_10  and  C_11 
REMARK    6  A    between atoms: C_14  and  N_18 
ROOT
HETATM    1  C   UNL     1       8.452  -3.728   2.505  1.00  0.00     0.051 A 
HETATM    2  C   UNL     1       9.393  -2.711   2.457  1.00  0.00     0.035 A 
HETATM    3  C   UNL     1      10.751  -3.008   2.552  1.00  0.00     0.051 A 
HETATM    4  C   UNL     1      11.188  -4.320   2.699  1.00  0.00     0.103 A 
HETATM    5  N   UNL     1      10.279  -5.310   2.858  1.00  0.00    -0.350 N 
ATOM      6  HN  UNL     1      10.578  -6.267   3.044  1.00  0.00     0.166 HD
HETATM    7  C   UNL     1       8.950  -4.997   2.764  1.00  0.00     0.119 A 
ENDROOT
BRANCH   1   8
HETATM    8  N   UNL     1       7.067  -3.497   2.300  1.00  0.00    -0.308 N 
HETATM    9  C   UNL     1       6.567  -2.380   1.665  1.00  0.00     0.320 C 
HETATM   10  N   UNL     1       5.193  -2.309   1.666  1.00  0.00    -0.340 N 
HETATM   11  O   UNL     1       7.241  -1.487   1.160  1.00  0.00    -0.247 OA
HETATM   12  H   UNL     1       4.659  -3.166   1.688  1.00  0.00     0.164 HD
HETATM   13  H   UNL     1       6.432  -4.269   2.440  1.00  0.00     0.170 HD
BRANCH  10  14
HETATM   14  C   UNL     1       4.563  -1.191   0.966  1.00  0.00     0.161 C 
BRANCH  14  15
HETATM   15  C   UNL     1       3.165  -0.810   1.504  1.00  0.00     0.070 C 
HETATM   16  C   UNL     1       3.226  -0.504   3.005  1.00  0.00     0.047 C 
BRANCH  15  17
HETATM   17  C   UNL     1       2.657   0.407   0.691  1.00  0.00     0.034 C 
HETATM   18  C   UNL     1       1.264   0.909   1.052  1.00  0.00     0.008 C 
ENDBRANCH  15  17
BRANCH  15  19
HETATM   19  O   UNL     1       2.297  -1.931   1.296  1.00  0.00    -0.389 OA
HETATM   20  H   UNL     1       1.422  -1.699   1.651  1.00  0.00     0.210 HD
ENDBRANCH  15  19
ENDBRANCH  14  15
ENDBRANCH  10  14
ENDBRANCH   1   8
BRANCH   4  21
HETATM   21  N   UNL     1      12.540  -4.603   2.710  1.00  0.00    -0.363 N 
HETATM   22  C   UNL     1      13.495  -3.841   1.892  1.00  0.00     0.150 C 
HETATM   23  C   UNL     1      14.156  -4.743   0.839  1.00  0.00     0.187 C 
HETATM   24  O   UNL     1      14.750  -5.903   1.437  1.00  0.00    -0.388 OA
HETATM   25  C   UNL     1      13.738  -6.684   2.096  1.00  0.00     0.187 C 
HETATM   26  C   UNL     1      13.037  -5.889   3.208  1.00  0.00     0.150 C 
ENDBRANCH   4  21
TORSDOF 6
