REMARK  7 active torsions:
REMARK  status: ('A' for Active; 'I' for Inactive)
REMARK    1  A    between atoms: C_2  and  C_3 
REMARK    2  A    between atoms: C_3  and  N_4 
REMARK       I    between atoms: N_4  and  C_5 
REMARK    3  A    between atoms: C_5  and  C_7 
REMARK    4  A    between atoms: C_7  and  N_8 
REMARK    5  A    between atoms: C_11  and  C_12 
REMARK    6  A    between atoms: C_12  and  N_13 
REMARK    7  A    between atoms: N_17  and  C_18 
ROOT
HETATM    1  N   UNL     1       7.048   2.760  -2.992  1.00  0.00    -0.256 N 
HETATM    2  C   UNL     1       7.677   2.328  -4.150  1.00  0.00     0.273 A 
HETATM    3  O   UNL     1       7.967   1.157  -4.376  1.00  0.00    -0.266 OA
HETATM    4  C   UNL     1       8.024   3.379  -5.129  1.00  0.00     0.110 A 
HETATM    5  C   UNL     1       7.703   4.649  -4.864  1.00  0.00     0.123 A 
HETATM    6  N   UNL     1       7.053   5.012  -3.706  1.00  0.00    -0.303 N 
HETATM    7  C   UNL     1       6.738   4.087  -2.704  1.00  0.00     0.332 A 
HETATM    8  O   UNL     1       6.195   4.416  -1.646  1.00  0.00    -0.246 OA
ENDROOT
BRANCH   1   9
HETATM    9  C   UNL     1       6.609   1.761  -2.027  1.00  0.00     0.239 C 
BRANCH   9  10
HETATM   10  C   UNL     1       5.134   1.460  -2.296  1.00  0.00     0.236 C 
HETATM   11  N   UNL     1       4.257   2.340  -1.695  1.00  0.00    -0.360 N 
HETATM   12  H   UNL     1       4.636   3.153  -1.208  1.00  0.00     0.162 HD
HETATM   13  O   UNL     1       4.769   0.565  -3.052  1.00  0.00    -0.272 OA
BRANCH  11  14
HETATM   14  C   UNL     1       2.823   2.238  -1.858  1.00  0.00     0.122 C 
BRANCH  14  15
HETATM   15  C   UNL     1       2.197   1.254  -0.870  1.00  0.00     0.015 C 
HETATM   16  C   UNL     1       2.350   1.705   0.576  1.00  0.00     0.006 C 
ENDBRANCH  14  15
ENDBRANCH  11  14
ENDBRANCH   9  10
ENDBRANCH   1   9
BRANCH   4  17
HETATM   17  C   UNL     1       8.698   3.004  -6.440  1.00  0.00    -0.030 C 
BRANCH  17  18
HETATM   18  N   UNL     1       9.256   2.694  -7.527  1.00  0.00    -0.365 N 
ATOM     19  HN2 UNL     1       8.781   2.977  -6.670  1.00  0.00     0.165 HD
ATOM     20  HN1 UNL     1       9.708   2.443  -8.406  1.00  0.00     0.165 HD
ENDBRANCH  17  18
ENDBRANCH   4  17
BRANCH   6  21
HETATM   21  C   UNL     1       6.625   6.383  -3.518  1.00  0.00     0.094 A 
HETATM   22  C   UNL     1       5.186   6.722  -3.846  1.00  0.00     0.028 A 
HETATM   23  C   UNL     1       6.298   7.384  -4.596  1.00  0.00     0.028 A 
ENDBRANCH   6  21
TORSDOF 7
