REMARK  7 active torsions:
REMARK  status: ('A' for Active; 'I' for Inactive)
REMARK    1  A    between atoms: C_2  and  C_3 
REMARK       I    between atoms: C_2  and  N_13 
REMARK    2  A    between atoms: C_3  and  C_4 
REMARK    3  A    between atoms: C_4  and  S_5 
REMARK    4  A    between atoms: S_5  and  C_8 
REMARK    5  A    between atoms: N_13  and  C_14 
REMARK    6  A    between atoms: C_14  and  C_15 
REMARK    7  A    between atoms: C_15  and  C_16 
ROOT
HETATM    1  O   UNL     1       1.084   0.278  -0.004  1.00  0.00    -0.274 OA
HETATM    2  C   UNL     1       2.262  -0.064  -0.002  1.00  0.00     0.218 C 
HETATM    3  N   UNL     1       2.969  -0.430  -1.124  1.00  0.00    -0.361 N 
HETATM    4  H   UNL     1       3.862  -0.886  -0.981  1.00  0.00     0.162 HD
ENDROOT
BRANCH   2   5
HETATM    5  C   UNL     1       3.089  -0.074   1.258  1.00  0.00     0.117 C 
BRANCH   5   6
HETATM    6  C   UNL     1       2.185  -0.062   2.481  1.00  0.00     0.150 C 
BRANCH   6   7
HETATM    7  S   UNL     1       3.150  -0.086   3.969  1.00  0.00     0.149 S 
HETATM    8  O   UNL     1       3.935  -1.307   3.954  1.00  0.00    -0.227 OA
HETATM    9  O   UNL     1       3.802   1.204   4.093  1.00  0.00    -0.227 OA
BRANCH   7  10
HETATM   10  C   UNL     1       1.951  -0.246   5.284  1.00  0.00     0.108 C 
HETATM   11  C   UNL     1       0.929   0.888   5.351  1.00  0.00     0.020 C 
HETATM   12  C   UNL     1       0.686   1.156   6.839  1.00  0.00     0.001 C 
HETATM   13  C   UNL     1       1.482   0.103   7.597  1.00  0.00     0.001 C 
HETATM   14  C   UNL     1       2.618  -0.250   6.656  1.00  0.00     0.020 C 
ENDBRANCH   7  10
ENDBRANCH   6   7
ENDBRANCH   5   6
ENDBRANCH   2   5
BRANCH   3  15
HETATM   15  C   UNL     1       2.362  -0.626  -2.439  1.00  0.00     0.128 C 
BRANCH  15  16
HETATM   16  C   UNL     1       1.469   0.521  -2.918  1.00  0.00     0.076 C 
BRANCH  16  17
HETATM   17  C   UNL     1       0.924   0.317  -4.310  1.00  0.00     0.010 A 
HETATM   18  C   UNL     1      -0.325   0.845  -4.638  1.00  0.00     0.025 A 
HETATM   19  C   UNL     1      -0.817   0.670  -5.927  1.00  0.00     0.003 A 
HETATM   20  C   UNL     1      -0.046  -0.010  -6.861  1.00  0.00     0.017 A 
HETATM   21  C   UNL     1       1.192  -0.483  -6.463  1.00  0.00     0.088 A 
HETATM   22  N   UNL     1       1.694  -0.333  -5.216  1.00  0.00    -0.369 N 
ATOM     23  HN  UNL     1       2.615  -0.695  -4.968  1.00  0.00     0.165 HD
ENDBRANCH  16  17
ENDBRANCH  15  16
ENDBRANCH   3  15
TORSDOF 7
