REMARK  4 active torsions:
REMARK  status: ('A' for Active; 'I' for Inactive)
REMARK    1  A    between atoms: C_2  and  C_3 
REMARK    2  A    between atoms: C_2  and  N_10 
REMARK    3  A    between atoms: C_3  and  N_4 
REMARK       I    between atoms: N_10  and  C_11 
REMARK    4  A    between atoms: C_11  and  C_13 
ROOT
HETATM    1  C   UNL     1       1.030  -0.038   0.420  1.00  0.00     0.034 C 
HETATM    2  C   UNL     1       2.466   0.099  -0.086  1.00  0.00     0.100 C 
ENDROOT
BRANCH   2   3
HETATM    3  C   UNL     1       2.567   0.059  -1.621  1.00  0.00     0.172 C 
BRANCH   3   4
HETATM    4  N   UNL     1       2.112  -1.193  -2.194  1.00  0.00    -0.302 N 
HETATM    5  C   UNL     1       2.861  -2.313  -2.419  1.00  0.00     0.111 A 
HETATM    6  C   UNL     1       2.004  -3.239  -2.967  1.00  0.00     0.037 A 
HETATM    7  C   UNL     1       0.765  -2.578  -3.046  1.00  0.00     0.108 A 
HETATM    8  N   UNL     1       0.830  -1.325  -2.586  1.00  0.00    -0.310 N 
ATOM      9  HN  UNL     1       0.084  -0.631  -2.542  1.00  0.00     0.186 HD
ENDBRANCH   3   4
ENDBRANCH   2   3
BRANCH   2  10
HETATM   10  N   UNL     1       3.049   1.336   0.450  1.00  0.00    -0.355 N 
HETATM   11  C   UNL     1       4.411   1.481   0.610  1.00  0.00     0.222 C 
HETATM   12  O   UNL     1       5.204   0.587   0.332  1.00  0.00    -0.273 OA
HETATM   13  H   UNL     1       2.446   2.136   0.599  1.00  0.00     0.162 HD
BRANCH  11  14
HETATM   14  C   UNL     1       4.829   2.827   1.185  1.00  0.00     0.078 C 
HETATM   15  C   UNL     1       4.548   3.999   0.238  1.00  0.00     0.014 C 
HETATM   16  C   UNL     1       5.695   4.994   0.429  1.00  0.00     0.001 C 
HETATM   17  C   UNL     1       6.582   4.415   1.522  1.00  0.00     0.001 C 
HETATM   18  C   UNL     1       6.332   2.920   1.446  1.00  0.00     0.014 C 
ENDBRANCH  11  14
ENDBRANCH   2  10
TORSDOF 4
