REMARK  6 active torsions:
REMARK  status: ('A' for Active; 'I' for Inactive)
REMARK    1  A    between atoms: C_5  and  N_8 
REMARK       I    between atoms: N_8  and  C_9 
REMARK    2  A    between atoms: C_9  and  C_11 
REMARK    3  A    between atoms: C_11  and  N_12 
REMARK    4  A    between atoms: C_15  and  C_16 
REMARK    5  A    between atoms: C_16  and  N_17 
REMARK    6  A    between atoms: N_21  and  C_22 
ROOT
HETATM    1  N   UNL     1       7.404  -1.197  -4.320  1.00  0.00    -0.256 N 
HETATM    2  C   UNL     1       7.572  -2.357  -3.579  1.00  0.00     0.273 C 
HETATM    3  O   UNL     1       7.307  -2.437  -2.381  1.00  0.00    -0.266 OA
HETATM    4  C   UNL     1       8.076  -3.533  -4.322  1.00  0.00     0.110 C 
HETATM    5  C   UNL     1       8.187  -3.456  -5.652  1.00  0.00     0.123 C 
HETATM    6  N   UNL     1       7.902  -2.302  -6.344  1.00  0.00    -0.303 N 
HETATM    7  C   UNL     1       7.585  -1.100  -5.700  1.00  0.00     0.332 C 
HETATM    8  O   UNL     1       7.482  -0.036  -6.309  1.00  0.00    -0.246 OA
ENDROOT
BRANCH   1   9
HETATM    9  C   UNL     1       6.861  -0.021  -3.650  1.00  0.00     0.239 C 
BRANCH   9  10
HETATM   10  C   UNL     1       5.342  -0.060  -3.823  1.00  0.00     0.236 C 
HETATM   11  N   UNL     1       4.684  -0.839  -2.894  1.00  0.00    -0.355 N 
HETATM   12  H   UNL     1       5.209  -1.202  -2.104  1.00  0.00     0.162 HD
HETATM   13  O   UNL     1       4.769   0.469  -4.771  1.00  0.00    -0.272 OA
BRANCH  11  14
HETATM   14  C   UNL     1       3.235  -1.005  -2.921  1.00  0.00     0.084 C 
HETATM   15  C   UNL     1       2.532   0.154  -2.203  1.00  0.00     0.025 C 
HETATM   16  C   UNL     1       2.712   0.094  -0.686  1.00  0.00     0.006 C 
HETATM   17  C   UNL     1       2.302  -1.259  -0.086  1.00  0.00    -0.019 C 
HETATM   18  C   UNL     1       0.781  -1.438  -0.083  1.00  0.00     0.010 C 
HETATM   19  C   UNL     1       3.003  -2.416  -0.811  1.00  0.00     0.006 C 
HETATM   20  C   UNL     1       2.836  -2.361  -2.330  1.00  0.00     0.025 C 
ENDBRANCH  11  14
ENDBRANCH   9  10
ENDBRANCH   1   9
BRANCH   4  21
HETATM   21  C   UNL     1       8.372  -4.834  -3.593  1.00  0.00    -0.030 C 
BRANCH  21  22
HETATM   22  N   UNL     1       8.616  -5.913  -2.988  1.00  0.00    -0.365 N 
ATOM     23  HN2 UNL     1       8.358  -5.045  -3.458  1.00  0.00     0.165 HD
ATOM     24  HN1 UNL     1       8.815  -6.786  -2.499  1.00  0.00     0.165 HD
ENDBRANCH  21  22
ENDBRANCH   4  21
BRANCH   6  25
HETATM   25  C   UNL     1       7.911  -2.304  -7.792  1.00  0.00     0.094 A 
HETATM   26  C   UNL     1       6.581  -2.463  -8.501  1.00  0.00     0.028 A 
HETATM   27  C   UNL     1       7.659  -3.482  -8.698  1.00  0.00     0.028 A 
ENDBRANCH   6  25
TORSDOF 6
