REMARK  4 active torsions:
REMARK  status: ('A' for Active; 'I' for Inactive)
REMARK    1  A    between atoms: C_2  and  O_3 
REMARK    2  A    between atoms: O_3  and  C_4 
REMARK    3  A    between atoms: C_6  and  N_7 
REMARK       I    between atoms: N_7  and  C_8 
REMARK       I    between atoms: C_8  and  N_10 
REMARK    4  A    between atoms: N_10  and  C_11 
ROOT
HETATM    1  N   UNL     1       5.157  -1.567  -4.842  1.00  0.00    -0.337 N 
HETATM    2  C   UNL     1       5.046  -0.760  -5.956  1.00  0.00     0.322 C 
HETATM    3  O   UNL     1       4.537   0.350  -5.901  1.00  0.00    -0.247 OA
HETATM    4  N   UNL     1       5.567  -1.364  -7.072  1.00  0.00    -0.288 N 
HETATM    5  H   UNL     1       5.341  -2.542  -5.027  1.00  0.00     0.164 HD
HETATM    6  H   UNL     1       5.798  -2.343  -7.049  1.00  0.00     0.172 HD
ENDROOT
BRANCH   1   7
HETATM    7  C   UNL     1       4.466  -1.233  -3.584  1.00  0.00     0.099 C 
HETATM    8  C   UNL     1       4.786   0.119  -2.903  1.00  0.00     0.059 C 
HETATM    9  C   UNL     1       4.505  -0.620  -1.554  1.00  0.00     0.133 C 
HETATM   10  C   UNL     1       5.044  -1.909  -2.288  1.00  0.00     0.006 C 
HETATM   11  C   UNL     1       4.467  -3.289  -1.991  1.00  0.00     0.014 C 
HETATM   12  C   UNL     1       6.561  -2.115  -2.160  1.00  0.00     0.014 C 
HETATM   13  C   UNL     1       5.511  -4.280  -2.509  1.00  0.00     0.001 C 
HETATM   14  C   UNL     1       6.791  -3.491  -2.768  1.00  0.00     0.001 C 
BRANCH   9  15
HETATM   15  O   UNL     1       3.102  -0.605  -1.192  1.00  0.00    -0.385 OA
BRANCH  15  16
HETATM   16  C   UNL     1       2.729  -1.161   0.060  1.00  0.00     0.163 C 
HETATM   17  C   UNL     1       1.216  -1.124   0.152  1.00  0.00     0.033 C 
ENDBRANCH  15  16
ENDBRANCH   9  15
ENDBRANCH   1   7
BRANCH   4  18
HETATM   18  C   UNL     1       5.625  -0.814  -8.327  1.00  0.00     0.168 A 
HETATM   19  N   UNL     1       5.937  -1.521  -9.391  1.00  0.00    -0.279 N 
HETATM   20  N   UNL     1       5.922  -0.761 -10.546  1.00  0.00    -0.303 N 
ATOM     21  HN  UNL     1       6.164  -2.515  -9.367  1.00  0.00     0.189 HD
HETATM   22  C   UNL     1       5.633   0.497 -10.290  1.00  0.00     0.160 A 
ATOM     23  HN  UNL     1       6.111  -1.129 -11.478  1.00  0.00     0.186 HD
HETATM   24  S   UNL     1       5.363   0.844  -8.638  1.00  0.00    -0.046 SA
ENDBRANCH   4  18
TORSDOF 4
