REMARK  4 active torsions:
REMARK  status: ('A' for Active; 'I' for Inactive)
REMARK    1  A    between atoms: S_2  and  C_3 
REMARK    2  A    between atoms: C_3  and  C_5 
REMARK       I    between atoms: C_5  and  N_7 
REMARK    3  A    between atoms: N_7  and  C_8 
REMARK    4  A    between atoms: C_11  and  N_15 
ROOT
HETATM    1  C   UNL     1       7.231   2.790  -0.823  1.00  0.00     0.107 A 
HETATM    2  C   UNL     1       7.818   4.036  -0.963  1.00  0.00     0.051 A 
HETATM    3  C   UNL     1       9.207   4.121  -1.171  1.00  0.00     0.034 A 
HETATM    4  C   UNL     1      10.020   2.982  -1.234  1.00  0.00     0.046 A 
HETATM    5  C   UNL     1       9.304   1.797  -1.041  1.00  0.00     0.119 A 
HETATM    6  N   UNL     1       7.966   1.679  -0.853  1.00  0.00    -0.350 N 
ATOM      7  HN  UNL     1       7.533   0.763  -0.737  1.00  0.00     0.166 HD
ENDROOT
BRANCH   1   8
HETATM    8  N   UNL     1       5.842   2.707  -0.671  1.00  0.00    -0.312 N 
HETATM    9  C   UNL     1       5.122   1.524  -0.688  1.00  0.00     0.236 C 
HETATM   10  O   UNL     1       5.593   0.389  -0.726  1.00  0.00    -0.272 OA
HETATM   11  H   UNL     1       5.311   3.567  -0.674  1.00  0.00     0.170 HD
BRANCH   9  12
HETATM   12  C   UNL     1       3.601   1.718  -0.581  1.00  0.00     0.135 C 
HETATM   13  C   UNL     1       2.852   0.480  -1.074  1.00  0.00     0.031 C 
BRANCH  12  14
HETATM   14  S   UNL     1       3.014   3.248  -1.427  1.00  0.00    -0.160 SA
HETATM   15  C   UNL     1       3.494   2.893  -3.140  1.00  0.00     0.090 C 
ENDBRANCH  12  14
ENDBRANCH   9  12
ENDBRANCH   1   8
BRANCH   4  16
HETATM   16  N   UNL     1      11.383   3.019  -1.445  1.00  0.00    -0.376 N 
HETATM   17  C   UNL     1      12.180   4.251  -1.609  1.00  0.00     0.149 C 
HETATM   18  C   UNL     1      12.830   4.272  -3.004  1.00  0.00     0.187 C 
HETATM   19  O   UNL     1      13.630   3.100  -3.237  1.00  0.00    -0.388 OA
HETATM   20  C   UNL     1      12.826   1.916  -3.118  1.00  0.00     0.187 C 
HETATM   21  C   UNL     1      12.191   1.809  -1.722  1.00  0.00     0.149 C 
ENDBRANCH   4  16
TORSDOF 4
