REMARK  3 active torsions:
REMARK  status: ('A' for Active; 'I' for Inactive)
REMARK    1  A    between atoms: C_4  and  N_5 
REMARK       I    between atoms: N_5  and  C_6 
REMARK       I    between atoms: C_6  and  N_8 
REMARK    2  A    between atoms: N_8  and  C_9 
REMARK    3  A    between atoms: N_12  and  C_14 
ROOT
HETATM    1  N   UNL     1       5.834   1.584   0.102  1.00  0.00    -0.293 N 
HETATM    2  C   UNL     1       5.682   2.995   0.018  1.00  0.00     0.322 C 
HETATM    3  O   UNL     1       4.599   3.539  -0.053  1.00  0.00    -0.247 OA
HETATM    4  N   UNL     1       6.883   3.627   0.020  1.00  0.00    -0.336 N 
HETATM    5  H   UNL     1       6.756   1.181   0.104  1.00  0.00     0.172 HD
HETATM    6  H   UNL     1       7.747   3.110   0.026  1.00  0.00     0.164 HD
ENDROOT
BRANCH   1   7
HETATM    7  C   UNL     1       4.735   0.728   0.193  1.00  0.00     0.127 A 
HETATM    8  C   UNL     1       3.409   1.091   0.277  1.00  0.00     0.076 A 
HETATM    9  C   UNL     1       2.677  -0.105   0.351  1.00  0.00     0.025 A 
HETATM   10  C   UNL     1       1.203  -0.235   0.450  1.00  0.00     0.070 C 
HETATM   11  N   UNL     1       3.479  -1.173   0.324  1.00  0.00    -0.302 N 
HETATM   12  N   UNL     1       4.720  -0.649   0.232  1.00  0.00    -0.281 N 
ATOM     13  HN  UNL     1       3.215  -2.157   0.364  1.00  0.00     0.186 HD
HETATM   14  C   UNL     1       5.830  -1.570   0.180  1.00  0.00     0.179 C 
ENDBRANCH   1   7
BRANCH   4  15
HETATM   15  C   UNL     1       6.980   5.074  -0.048  1.00  0.00     0.116 C 
HETATM   16  C   UNL     1       6.320   5.854   1.088  1.00  0.00     0.057 C 
HETATM   17  C   UNL     1       6.036   7.234   0.484  1.00  0.00     0.275 C 
HETATM   18  N   UNL     1       6.435   7.191  -0.939  1.00  0.00     0.095 N 
HETATM   19  C   UNL     1       6.376   5.756  -1.286  1.00  0.00     0.298 C 
BRANCH  18  20
HETATM   20  C   UNL     1       7.782   7.752  -1.189  1.00  0.00     0.223 A 
HETATM   21  C   UNL     1       8.074   9.209  -0.980  1.00  0.00     0.038 A 
HETATM   22  C   UNL     1       7.967   8.662  -2.372  1.00  0.00     0.038 A 
ENDBRANCH  18  20
ENDBRANCH   4  15
TORSDOF 3
