REMARK  3 active torsions:
REMARK  status: ('A' for Active; 'I' for Inactive)
REMARK    1  A    between atoms: C_9  and  N_11 
REMARK       I    between atoms: N_11  and  C_12 
REMARK    2  A    between atoms: C_12  and  C_14 
REMARK    3  A    between atoms: C_14  and  N_15 
ROOT
HETATM    1  N   UNL     1       5.365   1.413   0.367  1.00  0.00    -0.354 N 
HETATM    2  C   UNL     1       6.731   1.273   0.521  1.00  0.00     0.236 C 
HETATM    3  O   UNL     1       7.434   0.610  -0.239  1.00  0.00    -0.272 OA
HETATM    4  H   UNL     1       4.842   1.822   1.137  1.00  0.00     0.162 HD
ENDROOT
BRANCH   1   5
HETATM    5  C   UNL     1       4.653   0.816  -0.752  1.00  0.00     0.093 C 
HETATM    6  C   UNL     1       3.113   1.105  -0.796  1.00  0.00    -0.016 C 
HETATM    7  C   UNL     1       2.490  -0.053   0.047  1.00  0.00    -0.035 C 
HETATM    8  C   UNL     1       2.664   0.736  -2.246  1.00  0.00     0.012 C 
HETATM    9  C   UNL     1       2.695   2.521  -0.434  1.00  0.00     0.018 C 
HETATM   10  C   UNL     1       0.948  -0.123   0.018  1.00  0.00     0.016 C 
HETATM   11  C   UNL     1       2.882  -0.102   1.536  1.00  0.00     0.016 C 
HETATM   12  C   UNL     1       3.194  -1.127  -0.820  1.00  0.00    -0.004 C 
HETATM   13  C   UNL     1       2.727  -0.800  -2.254  1.00  0.00     0.006 C 
HETATM   14  C   UNL     1       4.689  -0.735  -0.742  1.00  0.00     0.031 C 
ENDBRANCH   1   5
BRANCH   2  15
HETATM   15  C   UNL     1       7.307   1.955   1.762  1.00  0.00     0.235 C 
BRANCH  15  16
HETATM   16  N   UNL     1       7.308   1.057   2.916  1.00  0.00    -0.301 N 
HETATM   17  C   UNL     1       8.382   0.215   3.128  1.00  0.00     0.102 A 
HETATM   18  C   UNL     1       8.432  -0.613   4.173  1.00  0.00     0.092 A 
HETATM   19  C   UNL     1       7.307  -0.629   5.124  1.00  0.00     0.250 A 
HETATM   20  O   UNL     1       7.308  -1.376   6.094  1.00  0.00    -0.268 OA
HETATM   21  N   UNL     1       6.283   0.229   4.842  1.00  0.00    -0.275 N 
HETATM   22  C   UNL     1       6.206   1.062   3.757  1.00  0.00     0.329 A 
HETATM   23  H   UNL     1       5.498   0.223   5.474  1.00  0.00     0.173 HD
HETATM   24  O   UNL     1       5.209   1.757   3.563  1.00  0.00    -0.246 OA
ENDBRANCH  15  16
ENDBRANCH   2  15
TORSDOF 3
