REMARK  4 active torsions:
REMARK  status: ('A' for Active; 'I' for Inactive)
REMARK    1  A    between atoms: C_2  and  C_3 
REMARK    2  A    between atoms: C_2  and  N_10 
REMARK    3  A    between atoms: C_3  and  N_4 
REMARK       I    between atoms: N_10  and  C_11 
REMARK       I    between atoms: C_11  and  N_13 
REMARK    4  A    between atoms: N_13  and  C_14 
ROOT
HETATM    1  N   UNL     1       3.122   1.057   0.872  1.00  0.00    -0.337 N 
HETATM    2  C   UNL     1       4.418   0.797   1.294  1.00  0.00     0.322 C 
HETATM    3  O   UNL     1       5.020  -0.202   0.930  1.00  0.00    -0.247 OA
HETATM    4  N   UNL     1       4.895   1.807   2.081  1.00  0.00    -0.288 N 
HETATM    5  H   UNL     1       2.554   1.624   1.488  1.00  0.00     0.164 HD
HETATM    6  H   UNL     1       4.486   2.723   1.974  1.00  0.00     0.172 HD
ENDROOT
BRANCH   1   7
HETATM    7  C   UNL     1       2.426   0.097   0.014  1.00  0.00     0.100 C 
HETATM    8  C   UNL     1       0.917   0.237   0.140  1.00  0.00     0.034 C 
BRANCH   7   9
HETATM    9  C   UNL     1       2.901   0.158  -1.454  1.00  0.00     0.150 C 
BRANCH   9  10
HETATM   10  N   UNL     1       2.646   1.409  -2.167  1.00  0.00    -0.350 N 
HETATM   11  C   UNL     1       3.580   2.505  -2.120  1.00  0.00     0.126 C 
HETATM   12  C   UNL     1       3.157   3.442  -3.238  1.00  0.00     0.029 C 
HETATM   13  C   UNL     1       2.243   2.624  -4.137  1.00  0.00     0.104 C 
HETATM   14  C   UNL     1       1.843   1.441  -3.297  1.00  0.00     0.219 C 
HETATM   15  O   UNL     1       1.007   0.611  -3.617  1.00  0.00    -0.273 OA
ENDBRANCH   9  10
ENDBRANCH   7   9
ENDBRANCH   1   7
BRANCH   4  16
HETATM   16  C   UNL     1       6.133   1.817   2.677  1.00  0.00     0.168 A 
HETATM   17  N   UNL     1       6.717   2.921   3.089  1.00  0.00    -0.279 N 
HETATM   18  N   UNL     1       7.958   2.676   3.649  1.00  0.00    -0.303 N 
ATOM     19  HN  UNL     1       6.303   3.850   3.005  1.00  0.00     0.189 HD
HETATM   20  C   UNL     1       8.230   1.388   3.674  1.00  0.00     0.160 A 
ATOM     21  HN  UNL     1       8.584   3.402   3.999  1.00  0.00     0.186 HD
HETATM   22  S   UNL     1       6.999   0.388   3.033  1.00  0.00    -0.046 SA
ENDBRANCH   4  16
TORSDOF 4
