REMARK  6 active torsions:
REMARK  status: ('A' for Active; 'I' for Inactive)
REMARK    1  A    between atoms: N_2  and  C_14 
REMARK    2  A    between atoms: N_4  and  C_7 
REMARK    3  A    between atoms: C_14  and  C_17 
REMARK    4  A    between atoms: C_17  and  C_21 
REMARK    5  A    between atoms: C_17  and  O_26 
REMARK    6  A    between atoms: C_20  and  C_29 
ROOT
HETATM    1  C   UNL     1       0.309  -0.700  -0.280  1.00  0.00     0.117 A 
HETATM    2  N   UNL     1       1.568   1.093  -0.376  1.00  0.00    -0.325 N 
HETATM    3  C   UNL     1       0.262   0.681  -0.440  1.00  0.00     0.140 A 
HETATM    4  N   UNL     1       1.622  -1.124  -0.186  1.00  0.00    -0.346 N 
ATOM      5  HN  UNL     1       1.957  -2.082  -0.083  1.00  0.00     0.167 HD
HETATM    6  C   UNL     1      -0.932  -1.390  -0.204  1.00  0.00     0.114 A 
HETATM    7  C   UNL     1       2.345  -0.029  -0.258  1.00  0.00     0.185 A 
HETATM    8  N   UNL     1      -0.830   1.449  -0.571  1.00  0.00    -0.336 N 
ATOM      9  HN  UNL     1      -0.816   2.464  -0.673  1.00  0.00     0.168 HD
HETATM   10  N   UNL     1      -2.058  -0.634  -0.380  1.00  0.00    -0.341 N 
ATOM     11  HN  UNL     1      -2.977  -1.076  -0.383  1.00  0.00     0.167 HD
HETATM   12  C   UNL     1      -1.947   0.699  -0.549  1.00  0.00     0.183 A 
ENDROOT
BRANCH   6  13
HETATM   13  N   UNL     1      -1.054  -2.779   0.073  1.00  0.00    -0.262 NA
HETATM   14  C   UNL     1      -2.458  -3.226   0.108  1.00  0.00     0.137 C 
HETATM   15  C   UNL     1      -2.556  -4.739   0.403  1.00  0.00     0.097 C 
HETATM   16  O   UNL     1      -1.839  -5.076   1.615  1.00  0.00    -0.370 OA
HETATM   17  C   UNL     1      -2.133  -5.630  -0.761  1.00  0.00     0.067 C 
HETATM   18  C   UNL     1      -4.035  -5.123   0.607  1.00  0.00     0.207 C 
HETATM   19  C   UNL     1      -0.462  -4.649   1.602  1.00  0.00     0.136 C 
HETATM   20  C   UNL     1      -0.324  -3.139   1.306  1.00  0.00     0.129 C 
HETATM   21  C   UNL     1      -3.095  -6.794  -0.668  1.00  0.00     0.170 C 
HETATM   22  O   UNL     1      -4.339  -6.231  -0.256  1.00  0.00    -0.388 OA
BRANCH  19  23
HETATM   23  C   UNL     1       0.152  -4.960   2.976  1.00  0.00     0.029 C 
HETATM   24  C   UNL     1       0.097  -6.439   3.327  1.00  0.00     0.007 C 
ENDBRANCH  19  23
ENDBRANCH   6  13
BRANCH   2  25
HETATM   25  C   UNL     1       2.033   2.460  -0.213  1.00  0.00     0.165 C 
BRANCH  25  26
HETATM   26  C   UNL     1       2.870   3.001  -1.383  1.00  0.00     0.165 C 
BRANCH  26  27
HETATM   27  C   UNL     1       3.362   4.444  -1.166  1.00  0.00     0.151 C 
HETATM   28  O   UNL     1       4.144   4.524   0.047  1.00  0.00    -0.383 OA
HETATM   29  C   UNL     1       4.025   5.863   0.564  1.00  0.00     0.168 C 
HETATM   30  C   UNL     1       3.123   6.631  -0.383  1.00  0.00     0.029 C 
HETATM   31  C   UNL     1       2.317   5.533  -1.039  1.00  0.00     0.036 C 
ENDBRANCH  26  27
BRANCH  26  32
HETATM   32  O   UNL     1       4.040   2.180  -1.560  1.00  0.00    -0.391 OA
HETATM   33  H   UNL     1       4.766   2.607  -1.063  1.00  0.00     0.210 HD
ENDBRANCH  26  32
ENDBRANCH  25  26
ENDBRANCH   2  25
TORSDOF 6
