REMARK  4 active torsions:
REMARK  status: ('A' for Active; 'I' for Inactive)
REMARK    1  A    between atoms: C_4  and  N_5 
REMARK       I    between atoms: N_5  and  C_6 
REMARK       I    between atoms: C_6  and  N_8 
REMARK    2  A    between atoms: N_8  and  C_9 
REMARK    3  A    between atoms: C_9  and  C_10 
REMARK    4  A    between atoms: C_10  and  N_11 
ROOT
HETATM    1  N   UNL     1       5.810   1.678   0.089  1.00  0.00    -0.293 N 
HETATM    2  C   UNL     1       5.713   3.095   0.049  1.00  0.00     0.321 C 
HETATM    3  O   UNL     1       4.658   3.678  -0.106  1.00  0.00    -0.247 OA
HETATM    4  N   UNL     1       6.933   3.680   0.202  1.00  0.00    -0.341 N 
HETATM    5  H   UNL     1       6.721   1.253   0.156  1.00  0.00     0.172 HD
HETATM    6  H   UNL     1       7.786   3.144   0.178  1.00  0.00     0.164 HD
ENDROOT
BRANCH   1   7
HETATM    7  C   UNL     1       4.687   0.851   0.058  1.00  0.00     0.127 A 
HETATM    8  C   UNL     1       3.363   1.235   0.046  1.00  0.00     0.076 A 
HETATM    9  C   UNL     1       2.613   0.044   0.039  1.00  0.00     0.025 A 
HETATM   10  C   UNL     1       1.136  -0.082   0.032  1.00  0.00     0.070 C 
HETATM   11  N   UNL     1       3.403  -1.036   0.045  1.00  0.00    -0.302 N 
HETATM   12  N   UNL     1       4.652  -0.524   0.054  1.00  0.00    -0.281 N 
ATOM     13  HN  UNL     1       3.126  -2.018   0.043  1.00  0.00     0.186 HD
HETATM   14  C   UNL     1       5.754  -1.454   0.057  1.00  0.00     0.179 C 
ENDBRANCH   1   7
BRANCH   4  15
HETATM   15  C   UNL     1       7.034   5.124   0.088  1.00  0.00     0.154 C 
BRANCH  15  16
HETATM   16  C   UNL     1       6.367   5.900   1.248  1.00  0.00     0.292 C 
BRANCH  16  17
HETATM   17  N   UNL     1       6.414   7.343   1.013  1.00  0.00     0.090 N 
HETATM   18  C   UNL     1       7.763   7.910   1.010  1.00  0.00     0.272 C 
HETATM   19  C   UNL     1       7.548   9.399   1.255  1.00  0.00     0.032 C 
HETATM   20  C   UNL     1       6.076   9.532   1.624  1.00  0.00     0.032 C 
HETATM   21  C   UNL     1       5.665   8.121   2.001  1.00  0.00     0.272 C 
ENDBRANCH  16  17
ENDBRANCH  15  16
ENDBRANCH   4  15
TORSDOF 4
