REMARK  3 active torsions:
REMARK  status: ('A' for Active; 'I' for Inactive)
REMARK       I    between atoms: N_1  and  C_2 
REMARK    1  A    between atoms: C_2  and  C_4 
REMARK    2  A    between atoms: C_8  and  N_9 
REMARK       I    between atoms: N_9  and  C_10 
REMARK       I    between atoms: C_10  and  N_12 
REMARK    3  A    between atoms: N_12  and  C_13 
ROOT
HETATM    1  N   UNL     1       5.246  -0.326   0.314  1.00  0.00    -0.337 N 
HETATM    2  C   UNL     1       6.563   0.086   0.442  1.00  0.00     0.321 C 
HETATM    3  O   UNL     1       7.316   0.229  -0.514  1.00  0.00    -0.247 OA
HETATM    4  N   UNL     1       6.906   0.333   1.757  1.00  0.00    -0.309 N 
HETATM    5  H   UNL     1       4.642  -0.082   1.092  1.00  0.00     0.164 HD
HETATM    6  H   UNL     1       6.159   0.727   2.309  1.00  0.00     0.170 HD
ENDROOT
BRANCH   1   7
HETATM    7  C   UNL     1       4.608  -0.283  -0.998  1.00  0.00     0.099 C 
HETATM    8  C   UNL     1       3.131  -0.722  -1.013  1.00  0.00     0.100 C 
HETATM    9  C   UNL     1       3.166  -2.248  -1.148  1.00  0.00     0.016 C 
HETATM   10  C   UNL     1       4.546  -2.600  -1.690  1.00  0.00     0.003 C 
HETATM   11  C   UNL     1       5.226  -1.274  -1.994  1.00  0.00     0.026 C 
BRANCH   8  12
HETATM   12  C   UNL     1       2.282  -0.278   0.162  1.00  0.00     0.221 C 
HETATM   13  N   UNL     1       0.970  -0.648   0.087  1.00  0.00    -0.370 N 
HETATM   14  H   UNL     1       0.359  -0.411   0.859  1.00  0.00     0.159 HD
HETATM   15  H   UNL     1       0.610  -1.261  -0.636  1.00  0.00     0.159 HD
HETATM   16  O   UNL     1       2.704   0.369   1.114  1.00  0.00    -0.273 OA
ENDBRANCH   8  12
ENDBRANCH   1   7
BRANCH   4  17
HETATM   17  C   UNL     1       8.221   0.711   2.106  1.00  0.00     0.038 A 
HETATM   18  C   UNL     1       8.407   1.795   2.955  1.00  0.00     0.046 A 
HETATM   19  C   UNL     1       9.708   2.185   3.234  1.00  0.00     0.090 A 
HETATM   20  N   UNL     1      10.804   1.540   2.781  1.00  0.00    -0.375 N 
HETATM   21  C   UNL     1      10.590   0.468   1.988  1.00  0.00     0.090 A 
ATOM     22  HN  UNL     1      11.746   1.847   3.025  1.00  0.00     0.164 HD
HETATM   23  C   UNL     1       9.332   0.024   1.617  1.00  0.00     0.046 A 
ENDBRANCH   4  17
TORSDOF 3
