REMARK  4 active torsions:
REMARK  status: ('A' for Active; 'I' for Inactive)
REMARK    1  A    between atoms: C_2  and  C_7 
REMARK       I    between atoms: C_7  and  N_9 
REMARK    2  A    between atoms: N_9  and  C_10 
REMARK    3  A    between atoms: N_13  and  C_14 
REMARK    4  A    between atoms: C_14  and  C_15 
REMARK       I    between atoms: C_15  and  N_17 
ROOT
HETATM    1  C   UNL     1       4.776   0.245  -3.064  1.00  0.00     0.123 C 
HETATM    2  C   UNL     1       4.688   1.458  -3.781  1.00  0.00     0.068 C 
HETATM    3  C   UNL     1       5.227   1.184  -5.015  1.00  0.00     0.114 C 
HETATM    4  N   UNL     1       5.543  -0.143  -4.989  1.00  0.00    -0.293 N 
HETATM    5  N   UNL     1       5.433  -0.690  -3.757  1.00  0.00    -0.283 N 
ATOM      6  HN  UNL     1       5.770  -1.597  -3.435  1.00  0.00     0.189 HD
ENDROOT
BRANCH   1   7
HETATM    7  N   UNL     1       4.285  -0.042  -1.810  1.00  0.00    -0.311 N 
HETATM    8  C   UNL     1       3.012   0.357  -1.444  1.00  0.00     0.231 C 
HETATM    9  O   UNL     1       2.264   1.003  -2.178  1.00  0.00    -0.272 OA
HETATM   10  H   UNL     1       4.648  -0.907  -1.442  1.00  0.00     0.170 HD
BRANCH   8  11
HETATM   11  C   UNL     1       2.588  -0.033  -0.005  1.00  0.00     0.037 C 
HETATM   12  C   UNL     1       2.874  -1.509   0.295  1.00  0.00     0.025 C 
HETATM   13  C   UNL     1       3.288   0.900   1.003  1.00  0.00     0.019 C 
HETATM   14  C   UNL     1       2.276   1.987   1.380  1.00  0.00     0.001 C 
HETATM   15  C   UNL     1       1.028   1.736   0.549  1.00  0.00     0.001 C 
HETATM   16  C   UNL     1       1.089   0.253   0.219  1.00  0.00     0.019 C 
ENDBRANCH   8  11
ENDBRANCH   1   7
BRANCH   4  17
HETATM   17  C   UNL     1       5.762  -0.999  -6.137  1.00  0.00     0.250 C 
BRANCH  17  18
HETATM   18  C   UNL     1       7.037  -0.656  -6.853  1.00  0.00     0.235 C 
HETATM   19  O   UNL     1       7.104   0.177  -7.753  1.00  0.00    -0.272 OA
HETATM   20  N   UNL     1       8.147  -1.351  -6.463  1.00  0.00    -0.369 N 
HETATM   21  H   UNL     1       8.186  -1.829  -5.574  1.00  0.00     0.159 HD
HETATM   22  H   UNL     1       9.024  -1.075  -6.889  1.00  0.00     0.159 HD
ENDBRANCH  17  18
ENDBRANCH   4  17
TORSDOF 4
