REMARK  4 active torsions:
REMARK  status: ('A' for Active; 'I' for Inactive)
REMARK    1  A    between atoms: C_2  and  C_3 
REMARK    2  A    between atoms: C_2  and  N_13 
REMARK       I    between atoms: C_3  and  N_5 
REMARK    3  A    between atoms: N_5  and  C_6 
REMARK    4  A    between atoms: C_6  and  C_7 
ROOT
HETATM    1  C   UNL     1       2.298  -1.597  -0.210  1.00  0.00     0.242 C 
HETATM    2  O   UNL     1       2.122  -2.183  -1.276  1.00  0.00    -0.271 OA
HETATM    3  N   UNL     1       2.811  -2.225   0.911  1.00  0.00    -0.359 N 
HETATM    4  H   UNL     1       3.031  -1.673   1.735  1.00  0.00     0.162 HD
ENDROOT
BRANCH   1   5
HETATM    5  C   UNL     1       1.925  -0.133  -0.021  1.00  0.00     0.196 C 
HETATM    6  C   UNL     1       1.268   0.452  -1.273  1.00  0.00     0.044 C 
BRANCH   5   7
HETATM    7  N   UNL     1       3.091   0.640   0.367  1.00  0.00    -0.273 N 
HETATM    8  C   UNL     1       4.218   0.892  -0.354  1.00  0.00     0.202 A 
HETATM    9  N   UNL     1       5.029   1.645   0.351  1.00  0.00    -0.346 N 
HETATM   10  C   UNL     1       4.349   1.823   1.521  1.00  0.00     0.198 A 
ATOM     11  HN  UNL     1       5.945   2.009   0.088  1.00  0.00     0.167 HD
HETATM   12  N   UNL     1       3.168   1.202   1.591  1.00  0.00    -0.292 N 
ATOM     13  HN  UNL     1       2.503   1.163   2.363  1.00  0.00     0.188 HD
ENDBRANCH   5   7
ENDBRANCH   1   5
BRANCH   3  14
HETATM   14  C   UNL     1       3.263  -3.605   0.870  1.00  0.00     0.127 C 
BRANCH  14  15
HETATM   15  C   UNL     1       2.597  -4.490   1.941  1.00  0.00     0.003 C 
HETATM   16  C   UNL     1       3.078  -5.947   1.815  1.00  0.00     0.006 C 
HETATM   17  C   UNL     1       2.515  -6.660   0.583  1.00  0.00     0.000 C 
HETATM   18  C   UNL     1       0.995  -6.554   0.495  1.00  0.00     0.000 C 
HETATM   19  C   UNL     1       0.500  -5.117   0.638  1.00  0.00     0.000 C 
HETATM   20  C   UNL     1       1.060  -4.456   1.893  1.00  0.00     0.006 C 
ENDBRANCH  14  15
ENDBRANCH   3  14
TORSDOF 4
