REMARK  7 active torsions:
REMARK  status: ('A' for Active; 'I' for Inactive)
REMARK    1  A    between atoms: O_2  and  C_3 
REMARK    2  A    between atoms: C_3  and  C_4 
REMARK    3  A    between atoms: C_4  and  N_5 
REMARK    4  A    between atoms: C_6  and  N_7 
REMARK    5  A    between atoms: N_11  and  C_12 
REMARK    6  A    between atoms: C_12  and  C_13 
REMARK       I    between atoms: C_13  and  N_15 
REMARK    7  A    between atoms: N_15  and  C_16 
ROOT
HETATM    1  N   UNL     1      10.004   0.716  -4.894  1.00  0.00    -0.288 N 
HETATM    2  C   UNL     1      10.133  -0.354  -4.022  1.00  0.00     0.089 C 
HETATM    3  C   UNL     1       9.057  -1.112  -3.773  1.00  0.00     0.117 C 
HETATM    4  C   UNL     1       7.760  -0.841  -4.403  1.00  0.00     0.255 C 
HETATM    5  O   UNL     1       6.829  -1.613  -4.196  1.00  0.00    -0.268 OA
HETATM    6  N   UNL     1       7.692   0.294  -5.172  1.00  0.00    -0.257 N 
HETATM    7  C   UNL     1       8.794   1.057  -5.494  1.00  0.00     0.333 C 
HETATM    8  O   UNL     1       8.699   1.990  -6.298  1.00  0.00    -0.246 OA
ENDROOT
BRANCH   6   9
HETATM    9  C   UNL     1       6.392   0.704  -5.690  1.00  0.00     0.239 C 
BRANCH   9  10
HETATM   10  C   UNL     1       6.171   0.315  -7.153  1.00  0.00     0.236 C 
HETATM   11  O   UNL     1       5.224  -0.383  -7.503  1.00  0.00    -0.272 OA
HETATM   12  N   UNL     1       7.025   0.907  -8.063  1.00  0.00    -0.355 N 
HETATM   13  H   UNL     1       7.777   1.489  -7.695  1.00  0.00     0.162 HD
BRANCH  12  14
HETATM   14  C   UNL     1       6.879   0.770  -9.507  1.00  0.00     0.088 C 
HETATM   15  C   UNL     1       7.666  -0.428 -10.047  1.00  0.00     0.025 C 
HETATM   16  C   UNL     1       9.173  -0.203 -10.143  1.00  0.00     0.002 C 
HETATM   17  C   UNL     1       9.580   1.150 -10.722  1.00  0.00     0.005 C 
HETATM   18  C   UNL     1       8.785   2.343 -10.165  1.00  0.00    -0.013 C 
HETATM   19  C   UNL     1       9.211   3.613 -10.912  1.00  0.00     0.010 C 
HETATM   20  C   UNL     1       7.266   2.064 -10.265  1.00  0.00     0.008 C 
HETATM   21  C   UNL     1       6.391   3.239  -9.814  1.00  0.00     0.012 C 
ENDBRANCH  12  14
ENDBRANCH   9  10
ENDBRANCH   6   9
BRANCH   1  22
HETATM   22  C   UNL     1      11.147   1.580  -5.233  1.00  0.00     0.161 C 
BRANCH  22  23
HETATM   23  C   UNL     1      10.968   3.036  -4.786  1.00  0.00     0.187 C 
BRANCH  23  24
HETATM   24  O   UNL     1      12.133   3.792  -5.125  1.00  0.00    -0.394 OA
HETATM   25  C   UNL     1      11.928   5.175  -4.855  1.00  0.00     0.201 C 
ENDBRANCH  23  24
ENDBRANCH  22  23
ENDBRANCH   1  22
BRANCH   2  26
HETATM   26  N   UNL     1      11.329  -0.670  -3.405  1.00  0.00    -0.288 NA
HETATM   27  H   UNL     1      12.127  -0.595  -4.029  1.00  0.00     0.125 HD
HETATM   28  H   UNL     1      11.330  -1.580  -2.950  1.00  0.00     0.125 HD
ENDBRANCH   2  26
TORSDOF 7
