REMARK  4 active torsions:
REMARK  status: ('A' for Active; 'I' for Inactive)
REMARK       I    between atoms: C_2  and  N_3 
REMARK       I    between atoms: C_2  and  N_12 
REMARK    1  A    between atoms: N_3  and  C_4 
REMARK    2  A    between atoms: C_4  and  C_5 
REMARK    3  A    between atoms: C_5  and  C_6 
REMARK    4  A    between atoms: N_12  and  C_13 
ROOT
HETATM    1  O   UNL     1       3.047   2.989  -0.368  1.00  0.00    -0.247 OA
HETATM    2  C   UNL     1       3.283   1.814  -0.112  1.00  0.00     0.320 C 
HETATM    3  N   UNL     1       2.993   0.797  -0.994  1.00  0.00    -0.343 N 
HETATM    4  N   UNL     1       3.876   1.336   1.038  1.00  0.00    -0.308 N 
HETATM    5  H   UNL     1       2.807  -0.106  -0.584  1.00  0.00     0.164 HD
HETATM    6  H   UNL     1       4.366   0.458   0.943  1.00  0.00     0.170 HD
ENDROOT
BRANCH   3   7
HETATM    7  C   UNL     1       2.309   1.112  -2.239  1.00  0.00     0.128 C 
BRANCH   7   8
HETATM    8  C   UNL     1       3.289   1.532  -3.340  1.00  0.00     0.053 C 
BRANCH   8   9
HETATM    9  C   UNL     1       2.589   1.938  -4.620  1.00  0.00    -0.082 A 
HETATM   10  C   UNL     1       2.308   1.039  -5.573  1.00  0.00    -0.024 A 
HETATM   11  C   UNL     1       1.628   1.348  -6.861  1.00  0.00     0.027 A 
HETATM   12  C   UNL     1       1.288   2.809  -7.135  1.00  0.00     0.004 A 
HETATM   13  C   UNL     1       1.575   3.844  -6.051  1.00  0.00     0.005 A 
HETATM   14  C   UNL     1       2.262   3.395  -4.760  1.00  0.00     0.034 A 
ENDBRANCH   8   9
ENDBRANCH   7   8
ENDBRANCH   3   7
BRANCH   4  15
HETATM   15  C   UNL     1       4.137   2.104   2.195  1.00  0.00     0.051 A 
HETATM   16  C   UNL     1       3.494   3.309   2.470  1.00  0.00     0.032 A 
HETATM   17  C   UNL     1       3.811   4.022   3.625  1.00  0.00     0.019 A 
HETATM   18  C   UNL     1       4.760   3.494   4.483  1.00  0.00     0.088 A 
HETATM   19  N   UNL     1       5.386   2.316   4.273  1.00  0.00    -0.373 N 
HETATM   20  C   UNL     1       5.056   1.650   3.138  1.00  0.00     0.117 A 
ATOM     21  HN  UNL     1       6.071   1.947   4.933  1.00  0.00     0.164 HD
ENDBRANCH   4  15
TORSDOF 4
