REMARK  4 active torsions:
REMARK  status: ('A' for Active; 'I' for Inactive)
REMARK    1  A    between atoms: N_2  and  C_17 
REMARK    2  A    between atoms: C_6  and  N_10 
REMARK    3  A    between atoms: C_17  and  C_22 
REMARK    4  A    between atoms: C_22  and  O_30 
ROOT
HETATM    1  C   UNL     1       0.415  -0.779   0.002  1.00  0.00     0.117 A 
HETATM    2  N   UNL     1       1.562   1.074  -0.017  1.00  0.00    -0.324 N 
HETATM    3  C   UNL     1       0.282   0.595  -0.109  1.00  0.00     0.140 A 
HETATM    4  N   UNL     1       1.743  -1.133   0.136  1.00  0.00    -0.346 N 
ATOM      5  HN  UNL     1       2.134  -2.074   0.185  1.00  0.00     0.167 HD
HETATM    6  C   UNL     1      -0.771  -1.538   0.038  1.00  0.00     0.114 A 
HETATM    7  C   UNL     1       2.391   0.007   0.187  1.00  0.00     0.185 A 
HETATM    8  N   UNL     1      -0.856   1.295  -0.226  1.00  0.00    -0.336 N 
ATOM      9  HN  UNL     1      -0.904   2.308  -0.331  1.00  0.00     0.168 HD
HETATM   10  N   UNL     1      -1.952  -0.866  -0.049  1.00  0.00    -0.341 N 
ATOM     11  HN  UNL     1      -2.839  -1.368  -0.011  1.00  0.00     0.167 HD
HETATM   12  C   UNL     1      -1.928   0.477  -0.186  1.00  0.00     0.183 A 
ENDROOT
BRANCH   6  13
HETATM   13  N   UNL     1      -0.734  -2.908   0.299  1.00  0.00    -0.267 NA
HETATM   14  C   UNL     1      -1.890  -3.423   1.012  1.00  0.00     0.099 C 
HETATM   15  C   UNL     1      -1.498  -4.768   1.617  1.00  0.00     0.048 C 
HETATM   16  C   UNL     1      -0.907  -5.751   0.587  1.00  0.00     0.054 C 
HETATM   17  N   UNL     1      -1.935  -6.482  -0.185  1.00  0.00    -0.327 N 
HETATM   18  C   UNL     1       0.142  -5.076  -0.327  1.00  0.00     0.048 C 
HETATM   19  C   UNL     1      -0.208  -6.917   1.352  1.00  0.00     0.155 C 
HETATM   20  C   UNL     1      -1.815  -7.860  -0.046  1.00  0.00     0.318 C 
HETATM   21  C   UNL     1      -3.100  -5.888  -0.805  1.00  0.00     0.155 C 
HETATM   22  O   UNL     1      -2.556  -8.719  -0.491  1.00  0.00    -0.247 OA
HETATM   23  N   UNL     1      -0.725  -8.116   0.756  1.00  0.00    -0.341 N 
HETATM   24  H   UNL     1      -0.581  -9.054   1.103  1.00  0.00     0.164 HD
HETATM   25  C   UNL     1      -0.286  -3.705  -0.839  1.00  0.00     0.099 C 
ENDBRANCH   6  13
BRANCH   2  26
HETATM   26  C   UNL     1       1.945   2.458   0.053  1.00  0.00     0.169 C 
BRANCH  26  27
HETATM   27  C   UNL     1       2.672   3.089  -1.161  1.00  0.00     0.078 C 
HETATM   28  C   UNL     1       1.876   2.971  -2.464  1.00  0.00     0.066 C 
HETATM   29  C   UNL     1       2.121   1.657  -3.185  1.00  0.00     0.170 C 
HETATM   30  O   UNL     1       3.511   1.527  -3.465  1.00  0.00    -0.391 OA
HETATM   31  C   UNL     1       4.298   1.417  -2.287  1.00  0.00     0.170 C 
HETATM   32  C   UNL     1       4.127   2.625  -1.370  1.00  0.00     0.066 C 
BRANCH  27  33
HETATM   33  O   UNL     1       2.732   4.508  -0.862  1.00  0.00    -0.388 OA
HETATM   34  H   UNL     1       3.088   4.635   0.035  1.00  0.00     0.210 HD
ENDBRANCH  27  33
ENDBRANCH  26  27
ENDBRANCH   2  26
TORSDOF 4
