REMARK  4 active torsions:
REMARK  status: ('A' for Active; 'I' for Inactive)
REMARK    1  A    between atoms: N_4  and  C_5 
REMARK    2  A    between atoms: C_5  and  C_6 
REMARK    3  A    between atoms: C_6  and  N_7 
REMARK       I    between atoms: N_7  and  C_8 
REMARK       I    between atoms: C_8  and  N_10 
REMARK    4  A    between atoms: N_10  and  C_11 
ROOT
HETATM    1  N   UNL     1       3.191   3.997  -4.125  1.00  0.00    -0.341 N 
HETATM    2  C   UNL     1       3.009   3.994  -5.475  1.00  0.00     0.322 C 
HETATM    3  O   UNL     1       2.415   3.106  -6.076  1.00  0.00    -0.247 OA
HETATM    4  N   UNL     1       3.590   5.010  -6.176  1.00  0.00    -0.288 N 
HETATM    5  H   UNL     1       3.559   4.847  -3.707  1.00  0.00     0.164 HD
HETATM    6  H   UNL     1       3.570   4.934  -7.180  1.00  0.00     0.172 HD
ENDROOT
BRANCH   1   7
HETATM    7  C   UNL     1       2.621   3.022  -3.222  1.00  0.00     0.154 C 
BRANCH   7   8
HETATM    8  C   UNL     1       3.224   1.615  -3.386  1.00  0.00     0.292 C 
BRANCH   8   9
HETATM    9  N   UNL     1       2.682   0.630  -2.433  1.00  0.00     0.095 N 
HETATM   10  C   UNL     1       3.024   0.945  -1.031  1.00  0.00     0.303 C 
HETATM   11  C   UNL     1       2.473  -0.114  -0.054  1.00  0.00     0.146 C 
HETATM   12  C   UNL     1       0.948  -0.075   0.059  1.00  0.00     0.041 C 
HETATM   13  O   UNL     1       2.944  -1.428  -0.396  1.00  0.00    -0.378 OA
HETATM   14  C   UNL     1       2.661  -1.776  -1.761  1.00  0.00     0.146 C 
HETATM   15  C   UNL     1       3.210  -0.718  -2.742  1.00  0.00     0.303 C 
HETATM   16  C   UNL     1       3.295  -3.136  -2.021  1.00  0.00     0.041 C 
ENDBRANCH   8   9
ENDBRANCH   7   8
ENDBRANCH   1   7
BRANCH   4  17
HETATM   17  C   UNL     1       4.193   6.093  -5.603  1.00  0.00     0.169 A 
HETATM   18  N   UNL     1       4.214   6.429  -4.332  1.00  0.00    -0.279 N 
HETATM   19  N   UNL     1       4.959   7.561  -4.112  1.00  0.00    -0.296 N 
ATOM     20  HN  UNL     1       3.734   5.910  -3.597  1.00  0.00     0.189 HD
HETATM   21  C   UNL     1       5.483   8.025  -5.226  1.00  0.00     0.066 A 
ATOM     22  HN  UNL     1       5.090   7.990  -3.196  1.00  0.00     0.187 HD
HETATM   23  C   UNL     1       6.397   9.190  -5.294  1.00  0.00     0.078 C 
HETATM   24  S   UNL     1       5.052   7.136  -6.638  1.00  0.00    -0.038 SA
ENDBRANCH   4  17
TORSDOF 4
