REMARK  3 active torsions:
REMARK  status: ('A' for Active; 'I' for Inactive)
REMARK    1  A    between atoms: C_2  and  C_3 
REMARK       I    between atoms: C_2  and  N_10 
REMARK    2  A    between atoms: C_3  and  C_4 
REMARK    3  A    between atoms: N_10  and  C_11 
ROOT
HETATM    1  C   UNL     1       4.348  -0.279   1.272  1.00  0.00     0.089 C 
HETATM    2  C   UNL     1       5.211   0.681   0.464  1.00  0.00     0.051 C 
HETATM    3  C   UNL     1       5.044   0.476  -1.035  1.00  0.00     0.171 C 
HETATM    4  O   UNL     1       5.026  -0.863  -1.492  1.00  0.00    -0.380 OA
HETATM    5  C   UNL     1       4.456  -1.918  -0.711  1.00  0.00     0.062 C 
HETATM    6  C   UNL     1       5.219  -3.170  -1.228  1.00  0.00     0.038 C 
HETATM    7  C   UNL     1       4.906  -3.467  -2.707  1.00  0.00     0.003 C 
HETATM    8  C   UNL     1       3.412  -3.643  -2.955  1.00  0.00     0.000 C 
HETATM    9  C   UNL     1       2.614  -2.464  -2.423  1.00  0.00     0.003 C 
HETATM   10  C   UNL     1       2.953  -2.164  -0.972  1.00  0.00     0.038 C 
HETATM   11  C   UNL     1       4.682  -1.705   0.801  1.00  0.00     0.063 C 
ENDROOT
BRANCH   1  12
HETATM   12  N   UNL     1       2.939   0.121   1.162  1.00  0.00    -0.356 N 
HETATM   13  C   UNL     1       1.845  -0.107   1.956  1.00  0.00     0.223 C 
HETATM   14  O   UNL     1       0.761   0.296   1.525  1.00  0.00    -0.273 OA
HETATM   15  H   UNL     1       2.660   0.598   0.313  1.00  0.00     0.162 HD
BRANCH  13  16
HETATM   16  C   UNL     1       1.995  -0.875   3.245  1.00  0.00     0.161 C 
BRANCH  16  17
HETATM   17  C   UNL     1       1.139  -0.397   4.376  1.00  0.00     0.043 A 
HETATM   18  C   UNL     1       0.036   0.488   4.414  1.00  0.00     0.054 A 
HETATM   19  C   UNL     1      -0.311   0.550   5.742  1.00  0.00     0.169 A 
HETATM   20  O   UNL     1       0.498  -0.263   6.455  1.00  0.00    -0.250 OA
HETATM   21  N   UNL     1       1.412  -0.863   5.612  1.00  0.00    -0.265 N 
ATOM     22  HN  UNL     1       2.144  -1.524   5.871  1.00  0.00     0.194 HD
ENDBRANCH  16  17
ENDBRANCH  13  16
ENDBRANCH   1  12
TORSDOF 3
