REMARK  4 active torsions:
REMARK  status: ('A' for Active; 'I' for Inactive)
REMARK    1  A    between atoms: C_8  and  C_9 
REMARK    2  A    between atoms: C_9  and  C_10 
REMARK       I    between atoms: C_10  and  N_12 
REMARK    3  A    between atoms: N_12  and  C_13 
REMARK    4  A    between atoms: N_16  and  C_18 
ROOT
HETATM    1  C   UNL     1       2.319   5.050  -0.545  1.00  0.00     0.222 C 
HETATM    2  O   UNL     1       1.945   5.786  -1.454  1.00  0.00    -0.273 OA
HETATM    3  N   UNL     1       1.443   4.436   0.333  1.00  0.00    -0.354 N 
HETATM    4  H   UNL     1       1.802   3.864   1.090  1.00  0.00     0.162 HD
ENDROOT
BRANCH   1   5
HETATM    5  C   UNL     1       3.792   4.752  -0.318  1.00  0.00     0.147 C 
BRANCH   5   6
HETATM    6  C   UNL     1       4.283   3.695  -1.243  1.00  0.00     0.022 A 
HETATM    7  C   UNL     1       4.859   3.837  -2.541  1.00  0.00     0.039 A 
HETATM    8  C   UNL     1       5.121   5.070  -3.326  1.00  0.00     0.071 C 
HETATM    9  N   UNL     1       5.199   2.649  -3.055  1.00  0.00    -0.264 N 
HETATM   10  O   UNL     1       4.836   1.712  -2.109  1.00  0.00    -0.225 OA
ATOM     11  HN  UNL     1       5.636   2.472  -3.959  1.00  0.00     0.194 HD
HETATM   12  C   UNL     1       4.289   2.333  -1.033  1.00  0.00     0.176 A 
HETATM   13 CL   UNL     1       3.726   1.485   0.354  1.00  0.00    -0.054 Cl
ENDBRANCH   5   6
ENDBRANCH   1   5
BRANCH   3  14
HETATM   14  C   UNL     1       0.007   4.668   0.239  1.00  0.00     0.114 C 
HETATM   15  C   UNL     1      -0.393   6.077   0.667  1.00  0.00     0.057 C 
HETATM   16  C   UNL     1      -1.725   5.924   1.394  1.00  0.00     0.275 C 
HETATM   17  N   UNL     1      -2.125   4.510   1.315  1.00  0.00     0.095 N 
HETATM   18  C   UNL     1      -0.858   3.774   1.133  1.00  0.00     0.298 C 
BRANCH  17  19
HETATM   19  C   UNL     1      -3.102   4.255   0.235  1.00  0.00     0.223 A 
HETATM   20  C   UNL     1      -4.499   4.815   0.345  1.00  0.00     0.038 A 
HETATM   21  C   UNL     1      -4.269   3.346   0.528  1.00  0.00     0.038 A 
ENDBRANCH  17  19
ENDBRANCH   3  14
TORSDOF 4
