REMARK  4 active torsions:
REMARK  status: ('A' for Active; 'I' for Inactive)
REMARK    1  A    between atoms: C_2  and  C_3 
REMARK    2  A    between atoms: C_2  and  N_14 
REMARK    3  A    between atoms: C_3  and  N_4 
REMARK       I    between atoms: N_4  and  C_5 
REMARK       I    between atoms: C_5  and  N_7 
REMARK    4  A    between atoms: N_7  and  C_8 
ROOT
HETATM    1  N   UNL     1       4.430   1.420   0.753  1.00  0.00    -0.341 N 
HETATM    2  C   UNL     1       5.014   2.569   1.247  1.00  0.00     0.320 C 
HETATM    3  O   UNL     1       4.362   3.576   1.499  1.00  0.00    -0.247 OA
HETATM    4  N   UNL     1       6.377   2.444   1.382  1.00  0.00    -0.306 N 
HETATM    5  H   UNL     1       4.841   0.537   1.026  1.00  0.00     0.164 HD
HETATM    6  H   UNL     1       6.814   1.597   1.054  1.00  0.00     0.171 HD
ENDROOT
BRANCH   1   7
HETATM    7  C   UNL     1       2.984   1.399   0.617  1.00  0.00     0.159 C 
BRANCH   7   8
HETATM    8  C   UNL     1       2.435   0.062   0.064  1.00  0.00     0.236 C 
HETATM    9  C   UNL     1       0.912   0.204  -0.100  1.00  0.00     0.044 C 
BRANCH   8  10
HETATM   10  N   UNL     1       2.881  -1.095   0.871  1.00  0.00     0.094 N 
HETATM   11  C   UNL     1       2.544  -2.402   0.293  1.00  0.00     0.273 C 
HETATM   12  C   UNL     1       2.318  -3.341   1.474  1.00  0.00     0.032 C 
HETATM   13  C   UNL     1       2.711  -2.534   2.696  1.00  0.00     0.032 C 
HETATM   14  C   UNL     1       2.450  -1.102   2.269  1.00  0.00     0.273 C 
ENDBRANCH   8  10
ENDBRANCH   7   8
ENDBRANCH   1   7
BRANCH   4  15
HETATM   15  C   UNL     1       7.195   3.464   1.835  1.00  0.00     0.070 A 
HETATM   16  C   UNL     1       6.894   4.771   2.286  1.00  0.00     0.138 A 
HETATM   17  N   UNL     1       7.986   5.455   2.639  1.00  0.00    -0.310 N 
HETATM   18  N   UNL     1       8.986   4.588   2.411  1.00  0.00    -0.310 N 
ATOM     19  HN  UNL     1       8.046   6.408   2.996  1.00  0.00     0.186 HD
HETATM   20  C   UNL     1       8.564   3.380   1.930  1.00  0.00     0.138 A 
HETATM   21  H   UNL     1       9.935   4.891   2.607  1.00  0.00     0.186 HD
ENDBRANCH   4  15
TORSDOF 4
