REMARK  4 active torsions:
REMARK  status: ('A' for Active; 'I' for Inactive)
REMARK    1  A    between atoms: C_5  and  N_6 
REMARK       I    between atoms: N_6  and  C_7 
REMARK       I    between atoms: C_7  and  N_9 
REMARK    2  A    between atoms: N_9  and  C_10 
REMARK    3  A    between atoms: C_10  and  C_11 
REMARK    4  A    between atoms: C_11  and  C_12 
ROOT
HETATM    1  N   UNL     1       5.505  -1.744   0.820  1.00  0.00    -0.336 N 
HETATM    2  C   UNL     1       6.563  -1.962   1.667  1.00  0.00     0.316 C 
HETATM    3  O   UNL     1       6.653  -1.494   2.793  1.00  0.00    -0.247 OA
HETATM    4  N   UNL     1       7.494  -2.796   1.096  1.00  0.00    -0.343 N 
HETATM    5  H   UNL     1       5.730  -1.782  -0.164  1.00  0.00     0.164 HD
HETATM    6  H   UNL     1       7.078  -3.480   0.480  1.00  0.00     0.164 HD
ENDROOT
BRANCH   1   7
HETATM    7  C   UNL     1       4.376  -0.918   1.232  1.00  0.00     0.122 C 
HETATM    8  C   UNL     1       3.105  -1.294   0.480  1.00  0.00     0.065 C 
HETATM    9  C   UNL     1       2.563   0.004  -0.112  1.00  0.00     0.057 C 
HETATM   10  C   UNL     1       1.067   0.172   0.162  1.00  0.00     0.045 C 
HETATM   11  C   UNL     1       2.793   0.085  -1.624  1.00  0.00     0.045 C 
HETATM   12  O   UNL     1       3.263   1.080   0.527  1.00  0.00    -0.369 OA
HETATM   13  C   UNL     1       4.529   0.610   1.045  1.00  0.00     0.075 C 
HETATM   14  C   UNL     1       4.770   1.324   2.378  1.00  0.00     0.048 C 
HETATM   15  C   UNL     1       5.624   1.044   0.062  1.00  0.00     0.048 C 
ENDBRANCH   1   7
BRANCH   4  16
HETATM   16  C   UNL     1       8.616  -3.261   1.904  1.00  0.00     0.130 C 
BRANCH  16  17
HETATM   17  C   UNL     1       9.575  -4.131   1.097  1.00  0.00     0.076 C 
BRANCH  17  18
HETATM   18  C   UNL     1      10.768  -4.577   1.903  1.00  0.00     0.010 A 
HETATM   19  C   UNL     1      11.924  -3.801   1.944  1.00  0.00     0.025 A 
HETATM   20  C   UNL     1      13.019  -4.263   2.667  1.00  0.00     0.003 A 
HETATM   21  C   UNL     1      12.932  -5.477   3.333  1.00  0.00     0.017 A 
HETATM   22  C   UNL     1      11.742  -6.180   3.256  1.00  0.00     0.088 A 
HETATM   23  N   UNL     1      10.663  -5.758   2.560  1.00  0.00    -0.369 N 
ATOM     24  HN  UNL     1       9.804  -6.307   2.530  1.00  0.00     0.165 HD
ENDBRANCH  17  18
ENDBRANCH  16  17
ENDBRANCH   4  16
TORSDOF 4
