REMARK  3 active torsions:
REMARK  status: ('A' for Active; 'I' for Inactive)
REMARK    1  A    between atoms: N_1  and  C_9 
REMARK    2  A    between atoms: N_2  and  C_11 
REMARK       I    between atoms: N_7  and  C_8 
REMARK    3  A    between atoms: C_8  and  C_9 
ROOT
HETATM    1  N   UNL     1      -0.651   1.254  -0.485  1.00  0.00    -0.255 N 
HETATM    2  N   UNL     1      -0.214  -0.585  -1.907  1.00  0.00    -0.279 N 
HETATM    3  C   UNL     1      -0.774   0.674  -1.737  1.00  0.00     0.334 C 
HETATM    4  C   UNL     1       0.213   0.789   0.500  1.00  0.00     0.292 C 
HETATM    5  C   UNL     1       0.874  -0.496   0.195  1.00  0.00     0.200 C 
HETATM    6  C   UNL     1       0.606  -1.133  -0.943  1.00  0.00     0.146 C 
HETATM    7  O   UNL     1      -1.368   1.242  -2.644  1.00  0.00    -0.246 OA
HETATM    8  O   UNL     1       0.449   1.380   1.550  1.00  0.00    -0.264 OA
HETATM    9  F   UNL     1       1.715  -1.000   1.115  1.00  0.00    -0.199 F 
ENDROOT
BRANCH   1  10
HETATM   10  C   UNL     1      -1.492   2.415  -0.233  1.00  0.00     0.240 C 
BRANCH  10  11
HETATM   11  C   UNL     1      -2.939   1.944   0.022  1.00  0.00     0.242 C 
HETATM   12  N   UNL     1      -4.011   2.644  -0.501  1.00  0.00    -0.316 N 
HETATM   13  C   UNL     1      -4.132   3.548  -1.573  1.00  0.00     0.043 C 
HETATM   14  C   UNL     1      -5.290   2.625   0.230  1.00  0.00     0.137 C 
HETATM   15  C   UNL     1      -5.343   4.236  -1.474  1.00  0.00    -0.030 C 
HETATM   16  C   UNL     1      -3.315   3.782  -2.662  1.00  0.00     0.030 C 
HETATM   17  C   UNL     1      -5.657   5.297  -2.312  1.00  0.00     0.009 C 
HETATM   18  C   UNL     1      -6.239   3.609  -0.457  1.00  0.00     0.061 C 
HETATM   19  C   UNL     1      -4.783   5.595  -3.354  1.00  0.00     0.001 C 
HETATM   20  C   UNL     1      -3.650   4.802  -3.562  1.00  0.00     0.002 C 
HETATM   21  O   UNL     1      -3.135   1.010   0.812  1.00  0.00    -0.271 OA
ENDBRANCH  10  11
ENDBRANCH   1  10
BRANCH   2  22
HETATM   22  C   UNL     1      -0.723  -1.354  -3.046  1.00  0.00     0.232 C 
HETATM   23  O   UNL     1      -0.155  -2.667  -3.100  1.00  0.00    -0.366 OA
HETATM   24  C   UNL     1      -0.205  -3.120  -4.456  1.00  0.00     0.170 C 
HETATM   25  C   UNL     1      -0.455  -1.927  -5.352  1.00  0.00     0.031 C 
HETATM   26  C   UNL     1      -0.483  -0.742  -4.421  1.00  0.00     0.056 C 
ENDBRANCH   2  22
TORSDOF 3
