REMARK  6 active torsions:
REMARK  status: ('A' for Active; 'I' for Inactive)
REMARK    1  A    between atoms: S_2  and  C_3 
REMARK    2  A    between atoms: C_3  and  C_4 
REMARK    3  A    between atoms: C_4  and  C_5 
REMARK       I    between atoms: C_5  and  N_7 
REMARK    4  A    between atoms: N_7  and  C_8 
REMARK    5  A    between atoms: C_8  and  C_9 
REMARK    6  A    between atoms: C_12  and  N_16 
ROOT
HETATM    1  C   UNL     1       8.968   1.589  -4.397  1.00  0.00    -0.025 A 
HETATM    2  C   UNL     1       9.670   1.704  -3.202  1.00  0.00     0.014 A 
HETATM    3  C   UNL     1      11.058   1.850  -3.231  1.00  0.00     0.049 A 
HETATM    4  C   UNL     1      11.750   1.866  -4.442  1.00  0.00     0.103 A 
HETATM    5  N   UNL     1      11.077   1.685  -5.599  1.00  0.00    -0.352 N 
ATOM      6  HN  UNL     1      11.575   1.642  -6.488  1.00  0.00     0.166 HD
HETATM    7  C   UNL     1       9.726   1.562  -5.558  1.00  0.00     0.098 A 
ENDROOT
BRANCH   1   8
HETATM    8  C   UNL     1       7.473   1.515  -4.429  1.00  0.00     0.162 C 
BRANCH   8   9
HETATM    9  N   UNL     1       6.975   0.170  -4.260  1.00  0.00    -0.357 N 
HETATM   10  C   UNL     1       5.614  -0.047  -4.200  1.00  0.00     0.218 C 
HETATM   11  O   UNL     1       4.793   0.863  -4.221  1.00  0.00    -0.274 OA
HETATM   12  H   UNL     1       7.599  -0.606  -4.437  1.00  0.00     0.162 HD
BRANCH  10  13
HETATM   13  C   UNL     1       5.205  -1.500  -4.108  1.00  0.00     0.113 C 
BRANCH  13  14
HETATM   14  C   UNL     1       5.674  -2.108  -2.795  1.00  0.00     0.082 C 
BRANCH  14  15
HETATM   15  S   UNL     1       5.159  -3.851  -2.691  1.00  0.00    -0.173 SA
HETATM   16  C   UNL     1       5.892  -4.255  -1.087  1.00  0.00     0.089 C 
ENDBRANCH  14  15
ENDBRANCH  13  14
ENDBRANCH  10  13
ENDBRANCH   8   9
ENDBRANCH   1   8
BRANCH   4  17
HETATM   17  N   UNL     1      13.113   2.055  -4.485  1.00  0.00    -0.363 N 
HETATM   18  C   UNL     1      13.827   2.892  -3.517  1.00  0.00     0.150 C 
HETATM   19  C   UNL     1      14.614   3.998  -4.238  1.00  0.00     0.188 C 
HETATM   20  O   UNL     1      15.478   3.463  -5.249  1.00  0.00    -0.383 OA
HETATM   21  C   UNL     1      14.700   2.782  -6.255  1.00  0.00     0.135 C 
HETATM   22  C   UNL     1      15.680   2.282  -7.310  1.00  0.00     0.041 C 
HETATM   23  C   UNL     1      13.900   1.611  -5.643  1.00  0.00     0.155 C 
ENDBRANCH   4  17
TORSDOF 6
