REMARK  4 active torsions:
REMARK  status: ('A' for Active; 'I' for Inactive)
REMARK    1  A    between atoms: C_2  and  N_5 
REMARK       I    between atoms: N_5  and  C_6 
REMARK    2  A    between atoms: C_6  and  C_8 
REMARK    3  A    between atoms: C_8  and  C_9 
REMARK    4  A    between atoms: C_12  and  N_15 
ROOT
HETATM    1  C   UNL     1       6.447  -3.255  -0.220  1.00  0.00     0.026 A 
HETATM    2  C   UNL     1       7.253  -3.945   0.665  1.00  0.00     0.078 A 
HETATM    3  S   UNL     1       8.846  -4.059   0.032  1.00  0.00    -0.064 SA
HETATM    4  C   UNL     1       8.366  -3.115  -1.310  1.00  0.00     0.153 A 
HETATM    5  N   UNL     1       7.116  -2.724  -1.308  1.00  0.00    -0.339 N 
ATOM      6  HN  UNL     1       6.695  -2.114  -2.009  1.00  0.00     0.168 HD
ENDROOT
BRANCH   1   7
HETATM    7  C   UNL     1       4.967  -3.069  -0.154  1.00  0.00     0.160 C 
BRANCH   7   8
HETATM    8  C   UNL     1       4.524  -1.626  -0.019  1.00  0.00     0.223 C 
HETATM    9  N   UNL     1       5.269  -0.690  -0.700  1.00  0.00    -0.353 N 
HETATM   10  H   UNL     1       6.068  -1.040  -1.238  1.00  0.00     0.163 HD
HETATM   11  O   UNL     1       3.502  -1.352   0.613  1.00  0.00    -0.273 OA
BRANCH   9  12
HETATM   12  C   UNL     1       5.020   0.754  -0.705  1.00  0.00     0.022 C 
HETATM   13  C   UNL     1       5.037   1.312   0.723  1.00  0.00     0.037 C 
HETATM   14  C   UNL     1       3.680   1.074  -1.385  1.00  0.00     0.037 C 
HETATM   15  C   UNL     1       6.146   1.442  -1.502  1.00  0.00     0.037 C 
ENDBRANCH   9  12
ENDBRANCH   7   8
ENDBRANCH   1   7
BRANCH   4  16
HETATM   16  N   UNL     1       9.265  -2.906  -2.334  1.00  0.00    -0.298 N 
HETATM   17  C   UNL     1      10.188  -3.886  -2.840  1.00  0.00     0.134 C 
HETATM   18  C   UNL     1      10.669  -3.346  -4.172  1.00  0.00     0.029 C 
HETATM   19  C   UNL     1       9.696  -2.241  -4.543  1.00  0.00     0.105 C 
HETATM   20  C   UNL     1       8.980  -1.908  -3.262  1.00  0.00     0.225 C 
HETATM   21  O   UNL     1       8.271  -0.920  -3.132  1.00  0.00    -0.273 OA
ENDBRANCH   4  16
TORSDOF 4
