REMARK  5 active torsions:
REMARK  status: ('A' for Active; 'I' for Inactive)
REMARK    1  A    between atoms: N_6  and  C_7 
REMARK    2  A    between atoms: C_7  and  C_8 
REMARK    3  A    between atoms: C_8  and  O_9 
REMARK    4  A    between atoms: C_8  and  C_10 
REMARK    5  A    between atoms: C_19  and  C_20 
REMARK       I    between atoms: C_20  and  N_22 
ROOT
HETATM    1  C   UNL     1       0.946  -0.119  -0.064  1.00  0.00     0.049 C 
HETATM    2  C   UNL     1       2.449   0.019  -0.079  1.00  0.00    -0.039 A 
HETATM    3  C   UNL     1       3.170  -1.239  -0.039  1.00  0.00     0.033 A 
HETATM    4  C   UNL     1       4.510  -1.304  -0.010  1.00  0.00     0.011 A 
HETATM    5  C   UNL     1       5.184  -2.647   0.045  1.00  0.00     0.068 C 
HETATM    6  N   UNL     1       5.253  -0.127  -0.028  1.00  0.00    -0.315 N 
HETATM    7  C   UNL     1       4.636   1.130  -0.121  1.00  0.00     0.264 A 
HETATM    8  O   UNL     1       5.306   2.170  -0.196  1.00  0.00    -0.267 OA
HETATM    9  C   UNL     1       3.129   1.189  -0.114  1.00  0.00     0.105 A 
ENDROOT
BRANCH   6  10
HETATM   10  C   UNL     1       6.728  -0.128   0.045  1.00  0.00     0.169 C 
BRANCH  10  11
HETATM   11  C   UNL     1       7.445  -0.049  -1.330  1.00  0.00     0.169 C 
BRANCH  11  12
HETATM   12  O   UNL     1       6.921   1.021  -2.127  1.00  0.00    -0.389 OA
HETATM   13  H   UNL     1       6.716   1.761  -1.521  1.00  0.00     0.210 HD
ENDBRANCH  11  12
BRANCH  11  14
HETATM   14  C   UNL     1       8.956   0.153  -1.297  1.00  0.00    -0.028 A 
HETATM   15  C   UNL     1       9.703   0.281  -0.116  1.00  0.00     0.011 A 
HETATM   16  C   UNL     1      11.075   0.564  -0.160  1.00  0.00     0.024 A 
HETATM   17  C   UNL     1      11.719   0.713  -1.385  1.00  0.00     0.034 A 
HETATM   18 CL   UNL     1      13.391   1.116  -1.432  1.00  0.00    -0.084 Cl
HETATM   19  C   UNL     1      11.010   0.552  -2.570  1.00  0.00     0.024 A 
HETATM   20  C   UNL     1       9.642   0.269  -2.524  1.00  0.00     0.011 A 
ENDBRANCH  11  14
ENDBRANCH  10  11
ENDBRANCH   6  10
BRANCH   9  21
HETATM   21  C   UNL     1       2.395   2.504  -0.130  1.00  0.00     0.255 C 
HETATM   22  O   UNL     1       1.173   2.613  -0.121  1.00  0.00    -0.268 OA
HETATM   23  N   UNL     1       3.155   3.632  -0.147  1.00  0.00    -0.366 N 
HETATM   24  H   UNL     1       4.171   3.594  -0.172  1.00  0.00     0.159 HD
HETATM   25  H   UNL     1       2.692   4.532  -0.168  1.00  0.00     0.159 HD
ENDBRANCH   9  21
TORSDOF 5
