REMARK  8 active torsions:
REMARK  status: ('A' for Active; 'I' for Inactive)
REMARK    1  A    between atoms: C_2  and  C_4 
REMARK    2  A    between atoms: C_4  and  O_5 
REMARK    3  A    between atoms: C_4  and  C_6 
REMARK    4  A    between atoms: C_6  and  C_7 
REMARK    5  A    between atoms: C_7  and  N_8 
REMARK    6  A    between atoms: N_8  and  C_9 
REMARK    7  A    between atoms: C_9  and  C_11 
REMARK    8  A    between atoms: C_11  and  C_12 
ROOT
HETATM    1  N   UNL     1       6.072  -0.307  -3.277  1.00  0.00     0.088 N 
HETATM    2  H   UNL     1       6.624  -0.923  -2.679  1.00  0.00     0.316 HD
ENDROOT
BRANCH   1   3
HETATM    3  C   UNL     1       4.709  -0.262  -2.743  1.00  0.00     0.282 C 
BRANCH   3   4
HETATM    4  C   UNL     1       4.508   0.281  -1.341  1.00  0.00     0.012 A 
HETATM    5  C   UNL     1       5.559   0.053  -0.264  1.00  0.00     0.015 A 
HETATM    6  C   UNL     1       5.380   1.426  -0.844  1.00  0.00     0.015 A 
BRANCH   4   7
HETATM    7  C   UNL     1       3.038   0.274  -0.889  1.00  0.00     0.131 C 
BRANCH   7   8
HETATM    8  C   UNL     1       2.072   1.035  -1.834  1.00  0.00     0.007 C 
HETATM    9  C   UNL     1       0.626   0.954  -1.331  1.00  0.00     0.012 C 
HETATM   10  C   UNL     1       2.466   2.504  -2.009  1.00  0.00     0.012 C 
ENDBRANCH   7   8
BRANCH   7  11
HETATM   11  O   UNL     1       2.620  -1.089  -0.757  1.00  0.00    -0.394 OA
HETATM   12  H   UNL     1       2.508  -1.460  -1.647  1.00  0.00     0.210 HD
ENDBRANCH   7  11
ENDBRANCH   4   7
ENDBRANCH   3   4
ENDBRANCH   1   3
BRANCH   1  13
HETATM   13  C   UNL     1       6.076  -0.867  -4.651  1.00  0.00     0.220 C 
HETATM   14  C   UNL     1       5.265   0.020  -5.616  1.00  0.00     0.043 C 
BRANCH  13  15
HETATM   15  C   UNL     1       7.506  -1.016  -5.222  1.00  0.00     0.073 C 
BRANCH  15  16
HETATM   16  C   UNL     1       8.400  -1.969  -4.466  1.00  0.00    -0.053 A 
HETATM   17  C   UNL     1       8.420  -3.335  -4.758  1.00  0.00     0.024 A 
HETATM   18  C   UNL     1       9.290  -4.151  -4.049  1.00  0.00     0.088 A 
HETATM   19  N   UNL     1      10.117  -3.706  -3.081  1.00  0.00    -0.375 N 
HETATM   20  C   UNL     1      10.078  -2.386  -2.810  1.00  0.00     0.088 A 
ATOM     21  HN  UNL     1      10.741  -4.337  -2.579  1.00  0.00     0.164 HD
HETATM   22  C   UNL     1       9.248  -1.490  -3.467  1.00  0.00     0.024 A 
ENDBRANCH  15  16
ENDBRANCH  13  15
ENDBRANCH   1  13
TORSDOF 8
