REMARK  3 active torsions:
REMARK  status: ('A' for Active; 'I' for Inactive)
REMARK    1  A    between atoms: C_2  and  C_3 
REMARK    2  A    between atoms: C_2  and  C_14 
REMARK    3  A    between atoms: C_3  and  N_4 
REMARK       I    between atoms: N_4  and  C_5 
REMARK       I    between atoms: C_5  and  N_7 
ROOT
HETATM    1  C   UNL     1       2.838   0.439  -1.426  1.00  0.00     0.133 C 
ENDROOT
BRANCH   1   2
HETATM    2  C   UNL     1       2.328   0.014  -0.036  1.00  0.00     0.037 C 
HETATM    3  C   UNL     1       2.982  -1.291   0.423  1.00  0.00     0.017 C 
BRANCH   2   4
HETATM    4  C   UNL     1       0.824   0.020   0.047  1.00  0.00     0.003 A 
HETATM    5  C   UNL     1      -0.016   1.156   0.271  1.00  0.00     0.038 A 
HETATM    6  C   UNL     1       0.351   2.577   0.486  1.00  0.00     0.071 C 
HETATM    7  N   UNL     1      -1.309   0.820   0.277  1.00  0.00    -0.265 N 
HETATM    8  O   UNL     1      -1.346  -0.539   0.065  1.00  0.00    -0.242 OA
ATOM      9  HN  UNL     1      -2.105   1.443   0.411  1.00  0.00     0.194 HD
HETATM   10  C   UNL     1      -0.082  -1.018  -0.066  1.00  0.00     0.081 A 
HETATM   11  C   UNL     1       0.013  -2.474  -0.291  1.00  0.00     0.079 C 
ENDBRANCH   2   4
ENDBRANCH   1   2
BRANCH   1  12
HETATM   12  N   UNL     1       2.487  -0.469  -2.512  1.00  0.00    -0.342 N 
HETATM   13  C   UNL     1       3.056  -0.250  -3.748  1.00  0.00     0.318 C 
HETATM   14  O   UNL     1       3.875   0.649  -3.900  1.00  0.00    -0.247 OA
HETATM   15  N   UNL     1       2.628  -1.094  -4.757  1.00  0.00    -0.326 N 
HETATM   16  C   UNL     1       1.861  -2.332  -4.533  1.00  0.00     0.154 C 
HETATM   17  C   UNL     1       3.105  -0.984  -6.161  1.00  0.00     0.108 C 
HETATM   18  C   UNL     1       2.658  -3.558  -4.994  1.00  0.00     0.187 C 
HETATM   19  O   UNL     1       3.060  -3.432  -6.365  1.00  0.00    -0.388 OA
HETATM   20  C   UNL     1       3.878  -2.263  -6.547  1.00  0.00     0.192 C 
HETATM   21  C   UNL     1       3.923   0.246  -6.555  1.00  0.00     0.034 C 
HETATM   22  H   UNL     1       1.507  -0.701  -2.564  1.00  0.00     0.164 HD
ENDBRANCH   1  12
TORSDOF 3
