REMARK  4 active torsions:
REMARK  status: ('A' for Active; 'I' for Inactive)
REMARK    1  A    between atoms: C_2  and  C_3 
REMARK    2  A    between atoms: C_2  and  N_10 
REMARK    3  A    between atoms: C_3  and  N_4 
REMARK       I    between atoms: N_10  and  C_11 
REMARK    4  A    between atoms: C_11  and  C_13 
REMARK       I    between atoms: N_16  and  C_19 
REMARK       I    between atoms: C_19  and  N_21 
ROOT
HETATM    1  N   UNL     1       3.242  -0.090  -1.302  1.00  0.00    -0.355 N 
HETATM    2  C   UNL     1       4.581   0.081  -1.573  1.00  0.00     0.222 C 
HETATM    3  O   UNL     1       5.399   0.351  -0.700  1.00  0.00    -0.273 OA
HETATM    4  H   UNL     1       2.625  -0.416  -2.038  1.00  0.00     0.162 HD
ENDROOT
BRANCH   2   5
HETATM    5  C   UNL     1       4.938  -0.024  -3.057  1.00  0.00     0.081 C 
HETATM    6  C   UNL     1       4.605  -1.389  -3.672  1.00  0.00     0.034 C 
HETATM    7  C   UNL     1       5.597  -2.483  -3.283  1.00  0.00     0.128 C 
HETATM    8  N   UNL     1       6.983  -2.067  -3.490  1.00  0.00    -0.339 N 
HETATM    9  C   UNL     1       7.355  -0.791  -2.885  1.00  0.00     0.128 C 
HETATM   10  C   UNL     1       7.990  -2.856  -3.997  1.00  0.00     0.294 C 
HETATM   11  C   UNL     1       6.409   0.327  -3.312  1.00  0.00     0.034 C 
HETATM   12  O   UNL     1       9.161  -2.511  -4.116  1.00  0.00    -0.254 OA
HETATM   13  N   UNL     1       7.638  -4.099  -4.410  1.00  0.00    -0.254 NA
HETATM   14  H   UNL     1       6.997  -4.611  -3.828  1.00  0.00     0.128 HD
HETATM   15  H   UNL     1       8.445  -4.639  -4.698  1.00  0.00     0.128 HD
ENDBRANCH   2   5
BRANCH   1  16
HETATM   16  C   UNL     1       2.703  -0.018   0.056  1.00  0.00     0.100 C 
HETATM   17  C   UNL     1       2.345   1.431   0.390  1.00  0.00     0.034 C 
BRANCH  16  18
HETATM   18  C   UNL     1       1.473  -0.918   0.234  1.00  0.00     0.172 C 
BRANCH  18  19
HETATM   19  N   UNL     1       1.773  -2.310  -0.039  1.00  0.00    -0.302 N 
HETATM   20  C   UNL     1       2.172  -3.257   0.859  1.00  0.00     0.111 A 
HETATM   21  C   UNL     1       2.356  -4.412   0.137  1.00  0.00     0.037 A 
HETATM   22  C   UNL     1       2.036  -4.062  -1.187  1.00  0.00     0.108 A 
HETATM   23  N   UNL     1       1.683  -2.778  -1.303  1.00  0.00    -0.310 N 
ATOM     24  HN  UNL     1       1.410  -2.272  -2.146  1.00  0.00     0.186 HD
ENDBRANCH  18  19
ENDBRANCH  16  18
ENDBRANCH   1  16
TORSDOF 4
