REMARK  5 active torsions:
REMARK  status: ('A' for Active; 'I' for Inactive)
REMARK    1  A    between atoms: C_3  and  C_4 
REMARK    2  A    between atoms: C_5  and  C_6 
REMARK       I    between atoms: C_6  and  N_8 
REMARK    3  A    between atoms: N_8  and  C_9 
REMARK    4  A    between atoms: C_9  and  C_10 
REMARK    5  A    between atoms: C_10  and  C_11 
ROOT
HETATM    1  C   UNL     1       0.043   1.330   3.384  1.00  0.00     0.223 C 
HETATM    2  O   UNL     1       0.614   1.052   4.430  1.00  0.00    -0.273 OA
HETATM    3  N   UNL     1      -1.324   1.388   3.268  1.00  0.00    -0.360 N 
HETATM    4  H   UNL     1      -1.735   1.729   2.410  1.00  0.00     0.162 HD
ENDROOT
BRANCH   3   5
HETATM    5  C   UNL     1      -2.192   1.049   4.388  1.00  0.00     0.130 C 
BRANCH   5   6
HETATM    6  C   UNL     1      -2.474   2.216   5.334  1.00  0.00     0.106 C 
BRANCH   6   7
HETATM    7  C   UNL     1      -3.270   3.260   4.652  1.00  0.00     0.149 A 
HETATM    8  N   UNL     1      -4.569   3.338   4.470  1.00  0.00    -0.327 N 
HETATM    9  C   UNL     1      -4.681   4.473   3.709  1.00  0.00     0.100 A 
ATOM     10  HN  UNL     1      -5.303   2.716   4.807  1.00  0.00     0.169 HD
HETATM   11  C   UNL     1      -5.976   4.982   3.222  1.00  0.00     0.091 C 
HETATM   12  N   UNL     1      -3.521   5.075   3.416  1.00  0.00    -0.248 N 
HETATM   13  O   UNL     1      -2.575   4.270   4.053  1.00  0.00    -0.223 OA
ATOM     14  HN  UNL     1      -3.366   5.917   2.862  1.00  0.00     0.196 HD
ENDBRANCH   6   7
ENDBRANCH   5   6
ENDBRANCH   3   5
BRANCH   1  15
HETATM   15  C   UNL     1       0.797   1.611   2.124  1.00  0.00     0.094 A 
HETATM   16  C   UNL     1       2.288   1.310   2.107  1.00  0.00     0.030 A 
HETATM   17  C   UNL     1       1.801   2.751   1.994  1.00  0.00    -0.027 A 
HETATM   18  C   UNL     1       2.042   3.677   3.161  1.00  0.00     0.016 C 
HETATM   19  C   UNL     1       1.897   3.463   0.660  1.00  0.00     0.016 C 
BRANCH  16  20
HETATM   20  C   UNL     1       2.922   0.679   0.940  1.00  0.00    -0.019 C 
HETATM   21  C   UNL     1       2.668  -0.513   0.367  1.00  0.00    -0.091 C 
HETATM   22  C   UNL     1       1.645  -1.496   0.858  1.00  0.00     0.042 C 
HETATM   23  C   UNL     1       3.448  -0.929  -0.852  1.00  0.00     0.042 C 
ENDBRANCH  16  20
ENDBRANCH   1  15
TORSDOF 5
