REMARK  4 active torsions:
REMARK  status: ('A' for Active; 'I' for Inactive)
REMARK    1  A    between atoms: C_2  and  N_4 
REMARK    2  A    between atoms: C_7  and  C_8 
REMARK    3  A    between atoms: C_8  and  N_9 
REMARK       I    between atoms: N_9  and  C_10 
REMARK       I    between atoms: C_10  and  N_12 
REMARK    4  A    between atoms: N_12  and  C_13 
ROOT
HETATM    1  N   UNL     1       4.663  -2.216   3.163  1.00  0.00    -0.342 N 
HETATM    2  C   UNL     1       5.764  -2.061   3.942  1.00  0.00     0.322 C 
HETATM    3  O   UNL     1       5.832  -2.474   5.099  1.00  0.00    -0.247 OA
HETATM    4  N   UNL     1       6.817  -1.369   3.419  1.00  0.00    -0.288 N 
HETATM    5  H   UNL     1       4.611  -1.689   2.289  1.00  0.00     0.164 HD
HETATM    6  H   UNL     1       7.568  -1.153   4.054  1.00  0.00     0.172 HD
ENDROOT
BRANCH   1   7
HETATM    7  C   UNL     1       3.429  -2.789   3.651  1.00  0.00     0.130 C 
BRANCH   7   8
HETATM    8  C   UNL     1       2.280  -2.787   2.630  1.00  0.00     0.033 C 
HETATM    9  C   UNL     1       2.622  -3.543   1.350  1.00  0.00     0.038 C 
HETATM   10  C   UNL     1       2.968  -2.476   0.316  1.00  0.00     0.273 C 
HETATM   11  N   UNL     1       2.794  -1.169   0.974  1.00  0.00     0.092 N 
HETATM   12  C   UNL     1       1.895  -1.401   2.112  1.00  0.00     0.279 C 
BRANCH  11  13
HETATM   13  C   UNL     1       2.331  -0.121   0.040  1.00  0.00     0.215 C 
HETATM   14  C   UNL     1       2.145   1.238   0.729  1.00  0.00     0.042 C 
HETATM   15  C   UNL     1       3.309   0.080  -1.128  1.00  0.00     0.042 C 
ENDBRANCH  11  13
ENDBRANCH   7   8
ENDBRANCH   1   7
BRANCH   4  16
HETATM   16  C   UNL     1       6.898  -0.932   2.127  1.00  0.00     0.169 A 
HETATM   17  N   UNL     1       6.120  -1.230   1.117  1.00  0.00    -0.279 N 
HETATM   18  N   UNL     1       6.477  -0.554  -0.023  1.00  0.00    -0.296 N 
ATOM     19  HN  UNL     1       5.341  -1.886   1.171  1.00  0.00     0.189 HD
HETATM   20  C   UNL     1       7.479   0.271   0.188  1.00  0.00     0.066 A 
ATOM     21  HN  UNL     1       6.020  -0.677  -0.926  1.00  0.00     0.187 HD
HETATM   22  C   UNL     1       7.999   1.220  -0.825  1.00  0.00     0.078 C 
HETATM   23  S   UNL     1       8.146   0.173   1.773  1.00  0.00    -0.038 SA
ENDBRANCH   4  16
TORSDOF 4
