REMARK  6 active torsions:
REMARK  status: ('A' for Active; 'I' for Inactive)
REMARK    1  A    between atoms: O_2  and  C_3 
REMARK    2  A    between atoms: C_3  and  C_4 
REMARK    3  A    between atoms: C_8  and  C_9 
REMARK    4  A    between atoms: C_9  and  C_10 
REMARK    5  A    between atoms: C_10  and  N_12 
REMARK       I    between atoms: N_12  and  C_13 
REMARK    6  A    between atoms: C_13  and  C_15 
ROOT
HETATM    1  C   UNL     1       8.244   2.217   0.019  1.00  0.00     0.111 C 
ENDROOT
BRANCH   1   2
HETATM    2  C   UNL     1       6.868   1.664   0.039  1.00  0.00     0.150 A 
HETATM    3  O   UNL     1       6.361   1.307   1.255  1.00  0.00    -0.223 OA
HETATM    4  N   UNL     1       5.074   0.818   1.020  1.00  0.00    -0.245 N 
HETATM    5  C   UNL     1       4.938   0.935  -0.309  1.00  0.00     0.127 A 
ATOM      6  HN  UNL     1       4.400   0.459   1.696  1.00  0.00     0.196 HD
HETATM    7  N   UNL     1       6.033   1.459  -0.954  1.00  0.00    -0.325 N 
ATOM      8  HN  UNL     1       6.164   1.642  -1.949  1.00  0.00     0.169 HD
BRANCH   5   9
HETATM    9  C   UNL     1       3.713   0.473  -1.027  1.00  0.00     0.245 C 
BRANCH   9  10
HETATM   10  O   UNL     1       3.950  -0.560  -2.000  1.00  0.00    -0.389 OA
HETATM   11  C   UNL     1       4.372  -1.781  -1.405  1.00  0.00     0.202 C 
ENDBRANCH   9  10
ENDBRANCH   5   9
ENDBRANCH   1   2
BRANCH   1  12
HETATM   12  C   UNL     1       9.325   1.117  -0.032  1.00  0.00     0.087 C 
HETATM   13  C   UNL     1       9.253   0.313  -1.335  1.00  0.00     0.032 C 
BRANCH  12  14
HETATM   14  N   UNL     1      10.681   1.669   0.114  1.00  0.00    -0.356 N 
HETATM   15  C   UNL     1      11.111   2.248   1.292  1.00  0.00     0.222 C 
HETATM   16  O   UNL     1      10.365   2.427   2.248  1.00  0.00    -0.273 OA
HETATM   17  H   UNL     1      11.372   1.457  -0.596  1.00  0.00     0.162 HD
BRANCH  15  18
HETATM   18  C   UNL     1      12.578   2.651   1.288  1.00  0.00     0.078 C 
HETATM   19  C   UNL     1      13.513   1.437   1.232  1.00  0.00     0.014 C 
HETATM   20  C   UNL     1      14.637   1.696   2.236  1.00  0.00     0.001 C 
HETATM   21  C   UNL     1      14.486   3.146   2.665  1.00  0.00     0.001 C 
HETATM   22  C   UNL     1      12.993   3.400   2.559  1.00  0.00     0.014 C 
ENDBRANCH  15  18
ENDBRANCH  12  14
ENDBRANCH   1  12
TORSDOF 6
