REMARK  5 active torsions:
REMARK  status: ('A' for Active; 'I' for Inactive)
REMARK    1  A    between atoms: N_2  and  C_19 
REMARK    2  A    between atoms: N_3  and  C_7 
REMARK    3  A    between atoms: C_9  and  C_15 
REMARK    4  A    between atoms: C_19  and  C_22 
REMARK    5  A    between atoms: C_22  and  O_27 
ROOT
HETATM    1  C   UNL     1       0.337  -0.749  -0.099  1.00  0.00     0.117 A 
HETATM    2  N   UNL     1       1.412   1.157  -0.056  1.00  0.00    -0.324 N 
HETATM    3  C   UNL     1       0.153   0.623  -0.101  1.00  0.00     0.140 A 
HETATM    4  N   UNL     1       1.689  -1.049  -0.058  1.00  0.00    -0.346 N 
ATOM      5  HN  UNL     1       2.119  -1.974  -0.070  1.00  0.00     0.167 HD
HETATM    6  C   UNL     1      -0.827  -1.560  -0.120  1.00  0.00     0.114 A 
HETATM    7  C   UNL     1       2.300   0.116  -0.001  1.00  0.00     0.185 A 
HETATM    8  N   UNL     1      -1.009   1.300  -0.124  1.00  0.00    -0.336 N 
ATOM      9  HN  UNL     1      -1.090   2.317  -0.141  1.00  0.00     0.168 HD
HETATM   10  N   UNL     1      -2.026  -0.902  -0.112  1.00  0.00    -0.341 N 
ATOM     11  HN  UNL     1      -2.899  -1.429  -0.099  1.00  0.00     0.167 HD
HETATM   12  C   UNL     1      -2.049   0.448  -0.121  1.00  0.00     0.183 A 
ENDROOT
BRANCH   6  13
HETATM   13  N   UNL     1      -0.797  -2.952  -0.051  1.00  0.00    -0.262 NA
HETATM   14  C   UNL     1      -2.101  -3.621   0.050  1.00  0.00     0.129 C 
HETATM   15  C   UNL     1      -1.881  -5.111   0.414  1.00  0.00     0.139 C 
HETATM   16  O   UNL     1      -1.021  -5.756  -0.554  1.00  0.00    -0.378 OA
HETATM   17  C   UNL     1       0.259  -5.091  -0.616  1.00  0.00     0.131 C 
HETATM   18  C   UNL     1       0.098  -3.609  -1.016  1.00  0.00     0.128 C 
HETATM   19  C   UNL     1       1.131  -5.818  -1.633  1.00  0.00     0.040 C 
BRANCH  15  20
HETATM   20  C   UNL     1      -3.187  -5.860   0.443  1.00  0.00     0.016 A 
HETATM   21  C   UNL     1      -4.274  -5.481   1.423  1.00  0.00     0.007 A 
HETATM   22  C   UNL     1      -3.526  -6.771   1.599  1.00  0.00     0.007 A 
ENDBRANCH  15  20
ENDBRANCH   6  13
BRANCH   2  23
HETATM   23  C   UNL     1       1.730   2.558   0.069  1.00  0.00     0.169 C 
BRANCH  23  24
HETATM   24  C   UNL     1       2.088   3.276  -1.253  1.00  0.00     0.078 C 
HETATM   25  C   UNL     1       2.450   4.739  -0.935  1.00  0.00     0.066 C 
HETATM   26  C   UNL     1       1.210   5.589  -0.712  1.00  0.00     0.170 C 
HETATM   27  O   UNL     1       0.397   5.560  -1.879  1.00  0.00    -0.391 OA
HETATM   28  C   UNL     1      -0.114   4.257  -2.149  1.00  0.00     0.170 C 
HETATM   29  C   UNL     1       1.008   3.243  -2.352  1.00  0.00     0.066 C 
BRANCH  24  30
HETATM   30  O   UNL     1       3.288   2.665  -1.763  1.00  0.00    -0.388 OA
HETATM   31  H   UNL     1       3.070   1.779  -2.102  1.00  0.00     0.210 HD
ENDBRANCH  24  30
ENDBRANCH  23  24
ENDBRANCH   2  23
TORSDOF 5
