REMARK  6 active torsions:
REMARK  status: ('A' for Active; 'I' for Inactive)
REMARK    1  A    between atoms: O_2  and  C_3 
REMARK    2  A    between atoms: C_3  and  C_4 
REMARK    3  A    between atoms: C_4  and  N_5 
REMARK    4  A    between atoms: C_6  and  C_7 
REMARK    5  A    between atoms: C_7  and  N_8 
REMARK       I    between atoms: N_8  and  C_9 
REMARK    6  A    between atoms: C_9  and  C_11 
ROOT
HETATM    1  N   UNL     1       4.719   2.662  -0.809  1.00  0.00    -0.331 N 
HETATM    2  C   UNL     1       4.275   3.822  -0.197  1.00  0.00     0.102 A 
HETATM    3  N   UNL     1       4.943   4.868  -0.649  1.00  0.00    -0.343 N 
ATOM      4  HN  UNL     1       4.796   5.845  -0.397  1.00  0.00     0.167 HD
HETATM    5  C   UNL     1       5.876   4.374  -1.527  1.00  0.00     0.060 A 
HETATM    6  C   UNL     1       6.831   5.067  -2.284  1.00  0.00     0.032 A 
HETATM    7  C   UNL     1       7.723   4.336  -3.076  1.00  0.00     0.002 A 
HETATM    8  C   UNL     1       7.667   2.942  -3.105  1.00  0.00     0.002 A 
HETATM    9  C   UNL     1       6.699   2.238  -2.377  1.00  0.00     0.032 A 
HETATM   10  C   UNL     1       5.802   2.989  -1.602  1.00  0.00     0.062 A 
ENDROOT
BRANCH   2  11
HETATM   11  C   UNL     1       3.175   3.903   0.810  1.00  0.00     0.199 C 
BRANCH  11  12
HETATM   12  N   UNL     1       3.684   3.619   2.128  1.00  0.00    -0.348 N 
HETATM   13  C   UNL     1       2.845   3.134   3.111  1.00  0.00     0.275 C 
HETATM   14  O   UNL     1       1.714   2.726   2.858  1.00  0.00    -0.265 OA
HETATM   15  H   UNL     1       4.529   4.091   2.430  1.00  0.00     0.163 HD
BRANCH  13  16
HETATM   16  C   UNL     1       3.403   3.144   4.448  1.00  0.00     0.142 A 
HETATM   17  C   UNL     1       2.875   2.706   5.650  1.00  0.00     0.045 A 
HETATM   18  C   UNL     1       3.850   2.962   6.640  1.00  0.00     0.027 A 
HETATM   19  C   UNL     1       4.911   3.548   5.992  1.00  0.00     0.143 A 
HETATM   20  O   UNL     1       4.654   3.664   4.662  1.00  0.00    -0.317 OA
ENDBRANCH  13  16
ENDBRANCH  11  12
ENDBRANCH   2  11
BRANCH   1  21
HETATM   21  C   UNL     1       4.161   1.331  -0.663  1.00  0.00     0.156 C 
BRANCH  21  22
HETATM   22  C   UNL     1       2.783   1.168  -1.303  1.00  0.00     0.187 C 
BRANCH  22  23
HETATM   23  O   UNL     1       2.360  -0.190  -1.162  1.00  0.00    -0.394 OA
HETATM   24  C   UNL     1       1.013  -0.361  -1.592  1.00  0.00     0.201 C 
ENDBRANCH  22  23
ENDBRANCH  21  22
ENDBRANCH   1  21
TORSDOF 6
