REMARK  3 active torsions:
REMARK  status: ('A' for Active; 'I' for Inactive)
REMARK       I    between atoms: C_2  and  N_3 
REMARK       I    between atoms: C_2  and  N_12 
REMARK    1  A    between atoms: N_3  and  C_4 
REMARK    2  A    between atoms: N_7  and  C_9 
REMARK    3  A    between atoms: N_12  and  C_13 
ROOT
HETATM    1  O   UNL     1       1.273  -0.460  -0.860  1.00  0.00    -0.247 OA
HETATM    2  C   UNL     1       2.353  -0.148  -0.382  1.00  0.00     0.321 C 
HETATM    3  N   UNL     1       2.836   1.150  -0.407  1.00  0.00    -0.336 N 
HETATM    4  N   UNL     1       3.247  -0.982   0.259  1.00  0.00    -0.309 N 
HETATM    5  H   UNL     1       3.841   1.202  -0.483  1.00  0.00     0.164 HD
HETATM    6  H   UNL     1       4.026  -0.523   0.706  1.00  0.00     0.170 HD
ENDROOT
BRANCH   3   7
HETATM    7  C   UNL     1       2.110   2.189  -1.124  1.00  0.00     0.116 C 
HETATM    8  C   UNL     1       2.814   3.541  -1.020  1.00  0.00     0.057 C 
HETATM    9  C   UNL     1       1.709   4.569  -0.805  1.00  0.00     0.275 C 
HETATM   10  N   UNL     1       0.428   3.887  -1.024  1.00  0.00     0.095 N 
HETATM   11  C   UNL     1       0.690   2.487  -0.620  1.00  0.00     0.298 C 
BRANCH  10  12
HETATM   12  C   UNL     1      -0.059   3.987  -2.416  1.00  0.00     0.223 A 
HETATM   13  C   UNL     1      -0.502   5.311  -2.979  1.00  0.00     0.038 A 
HETATM   14  C   UNL     1      -1.523   4.273  -2.624  1.00  0.00     0.038 A 
ENDBRANCH  10  12
ENDBRANCH   3   7
BRANCH   4  15
HETATM   15  C   UNL     1       3.117  -2.369   0.493  1.00  0.00     0.038 A 
HETATM   16  C   UNL     1       2.054  -3.137   0.030  1.00  0.00     0.046 A 
HETATM   17  C   UNL     1       2.020  -4.484   0.359  1.00  0.00     0.090 A 
HETATM   18  N   UNL     1       2.966  -5.107   1.094  1.00  0.00    -0.375 N 
HETATM   19  C   UNL     1       3.995  -4.346   1.516  1.00  0.00     0.090 A 
ATOM     20  HN  UNL     1       2.905  -6.100   1.318  1.00  0.00     0.164 HD
HETATM   21  C   UNL     1       4.115  -2.992   1.244  1.00  0.00     0.046 A 
ENDBRANCH   4  15
TORSDOF 3
