REMARK  4 active torsions:
REMARK  status: ('A' for Active; 'I' for Inactive)
REMARK       I    between atoms: C_2  and  N_4 
REMARK    1  A    between atoms: C_7  and  N_10 
REMARK       I    between atoms: N_10  and  C_11 
REMARK       I    between atoms: C_11  and  N_13 
REMARK    2  A    between atoms: N_13  and  C_14 
REMARK    3  A    between atoms: C_14  and  C_15 
REMARK    4  A    between atoms: C_15  and  C_16 
ROOT
HETATM    1  N   UNL     1       4.949  -1.993   3.834  1.00  0.00    -0.338 N 
HETATM    2  C   UNL     1       5.991  -1.735   4.689  1.00  0.00     0.316 C 
HETATM    3  O   UNL     1       7.159  -1.631   4.343  1.00  0.00    -0.247 OA
HETATM    4  N   UNL     1       5.555  -1.596   5.979  1.00  0.00    -0.343 N 
HETATM    5  H   UNL     1       4.141  -2.419   4.263  1.00  0.00     0.164 HD
HETATM    6  H   UNL     1       4.575  -1.403   6.118  1.00  0.00     0.164 HD
ENDROOT
BRANCH   1   7
HETATM    7  C   UNL     1       5.186  -2.237   2.413  1.00  0.00     0.089 C 
HETATM    8  C   UNL     1       3.964  -1.855   1.577  1.00  0.00     0.045 C 
HETATM    9  C   UNL     1       2.821  -2.848   1.750  1.00  0.00     0.127 C 
HETATM   10  N   UNL     1       3.267  -4.219   1.515  1.00  0.00    -0.352 N 
HETATM   11  C   UNL     1       2.472  -5.050   0.736  1.00  0.00     0.215 C 
HETATM   12  C   UNL     1       4.422  -4.655   2.303  1.00  0.00     0.127 C 
HETATM   13  C   UNL     1       2.875  -6.496   0.620  1.00  0.00     0.117 C 
HETATM   14  O   UNL     1       1.464  -4.647   0.151  1.00  0.00    -0.274 OA
HETATM   15  C   UNL     1       5.594  -3.691   2.140  1.00  0.00     0.045 C 
ENDBRANCH   1   7
BRANCH   4  16
HETATM   16  C   UNL     1       6.484  -1.200   7.021  1.00  0.00     0.129 C 
BRANCH  16  17
HETATM   17  C   UNL     1       5.829  -1.059   8.397  1.00  0.00     0.061 C 
BRANCH  17  18
HETATM   18  C   UNL     1       5.188  -2.313   8.883  1.00  0.00    -0.023 A 
HETATM   19  C   UNL     1       5.802  -3.564   9.120  1.00  0.00     0.115 A 
HETATM   20  N   UNL     1       4.935  -4.489   9.543  1.00  0.00    -0.310 N 
HETATM   21  N   UNL     1       3.764  -3.831   9.587  1.00  0.00    -0.308 N 
ATOM     22  HN  UNL     1       5.119  -5.465   9.777  1.00  0.00     0.186 HD
HETATM   23  C   UNL     1       2.563  -4.516   9.994  1.00  0.00     0.177 C 
HETATM   24  C   UNL     1       3.862  -2.524   9.205  1.00  0.00     0.118 A 
ENDBRANCH  17  18
ENDBRANCH  16  17
ENDBRANCH   4  16
TORSDOF 4
