REMARK  4 active torsions:
REMARK  status: ('A' for Active; 'I' for Inactive)
REMARK    1  A    between atoms: C_5  and  C_9 
REMARK       I    between atoms: C_9  and  N_11 
REMARK    2  A    between atoms: N_11  and  C_12 
REMARK    3  A    between atoms: C_12  and  C_13 
REMARK    4  A    between atoms: C_13  and  C_14 
ROOT
HETATM    1  C   UNL     1       5.929  -0.073   0.122  1.00  0.00     0.222 C 
HETATM    2  O   UNL     1       5.776  -0.917   0.998  1.00  0.00    -0.273 OA
HETATM    3  N   UNL     1       6.856   0.938   0.225  1.00  0.00    -0.360 N 
HETATM    4  H   UNL     1       7.008   1.577  -0.549  1.00  0.00     0.162 HD
ENDROOT
BRANCH   3   5
HETATM    5  C   UNL     1       7.698   1.035   1.406  1.00  0.00     0.127 C 
BRANCH   5   6
HETATM    6  C   UNL     1       8.580   2.279   1.427  1.00  0.00     0.061 C 
BRANCH   6   7
HETATM    7  C   UNL     1       7.817   3.560   1.427  1.00  0.00    -0.023 A 
HETATM    8  C   UNL     1       6.849   4.001   2.360  1.00  0.00     0.115 A 
HETATM    9  N   UNL     1       6.369   5.212   2.070  1.00  0.00    -0.310 N 
HETATM   10  N   UNL     1       7.048   5.567   0.967  1.00  0.00    -0.308 N 
ATOM     11  HN  UNL     1       5.655   5.743   2.569  1.00  0.00     0.186 HD
HETATM   12  C   UNL     1       6.841   6.865   0.373  1.00  0.00     0.177 C 
HETATM   13  C   UNL     1       7.911   4.604   0.529  1.00  0.00     0.118 A 
ENDBRANCH   6   7
ENDBRANCH   5   6
ENDBRANCH   3   5
BRANCH   1  14
HETATM   14  C   UNL     1       5.100  -0.046  -1.157  1.00  0.00     0.088 C 
HETATM   15  C   UNL     1       4.228   1.204  -1.240  1.00  0.00     0.034 C 
HETATM   16  C   UNL     1       3.118   1.134  -0.204  1.00  0.00     0.126 C 
HETATM   17  N   UNL     1       2.323  -0.070  -0.372  1.00  0.00    -0.356 N 
HETATM   18  C   UNL     1       0.980  -0.073   0.179  1.00  0.00     0.152 C 
HETATM   19  C   UNL     1       2.959  -1.304  -0.483  1.00  0.00     0.220 C 
HETATM   20  C   UNL     1       4.251  -1.309  -1.281  1.00  0.00     0.117 C 
HETATM   21  O   UNL     1       2.437  -2.359  -0.123  1.00  0.00    -0.273 OA
ENDBRANCH   1  14
TORSDOF 4
