REMARK  5 active torsions:
REMARK  status: ('A' for Active; 'I' for Inactive)
REMARK    1  A    between atoms: C_2  and  C_3 
REMARK    2  A    between atoms: C_3  and  C_4 
REMARK    3  A    between atoms: C_4  and  N_7 
REMARK       I    between atoms: N_7  and  C_8 
REMARK    4  A    between atoms: C_8  and  C_10 
REMARK    5  A    between atoms: C_10  and  N_11 
ROOT
HETATM    1  N   UNL     1       5.003  -1.801   2.127  1.00  0.00    -0.351 N 
HETATM    2  C   UNL     1       4.716  -1.661   3.474  1.00  0.00     0.236 C 
HETATM    3  O   UNL     1       3.977  -0.791   3.931  1.00  0.00    -0.272 OA
HETATM    4  H   UNL     1       5.792  -2.390   1.881  1.00  0.00     0.163 HD
ENDROOT
BRANCH   2   5
HETATM    5  C   UNL     1       5.375  -2.701   4.387  1.00  0.00     0.235 C 
BRANCH   5   6
HETATM    6  N   UNL     1       6.208  -2.077   5.415  1.00  0.00    -0.301 N 
HETATM    7  C   UNL     1       5.651  -1.681   6.614  1.00  0.00     0.102 A 
HETATM    8  C   UNL     1       6.382  -1.127   7.584  1.00  0.00     0.092 A 
HETATM    9  C   UNL     1       7.824  -0.930   7.361  1.00  0.00     0.250 A 
HETATM   10  O   UNL     1       8.540  -0.456   8.232  1.00  0.00    -0.268 OA
HETATM   11  N   UNL     1       8.291  -1.311   6.138  1.00  0.00    -0.275 N 
HETATM   12  C   UNL     1       7.551  -1.873   5.131  1.00  0.00     0.329 A 
HETATM   13  H   UNL     1       9.275  -1.176   5.960  1.00  0.00     0.173 HD
HETATM   14  O   UNL     1       8.071  -2.173   4.058  1.00  0.00    -0.246 OA
ENDBRANCH   5   6
ENDBRANCH   2   5
BRANCH   1  15
HETATM   15  C   UNL     1       4.462  -0.926   1.066  1.00  0.00     0.025 C 
HETATM   16  C   UNL     1       5.053  -1.361  -0.293  1.00  0.00     0.038 C 
HETATM   17  C   UNL     1       4.903   0.533   1.300  1.00  0.00     0.038 C 
BRANCH  15  18
HETATM   18  C   UNL     1       2.909  -0.998   1.007  1.00  0.00     0.030 C 
BRANCH  18  19
HETATM   19  C   UNL     1       2.345  -2.402   0.741  1.00  0.00    -0.002 C 
HETATM   20  C   UNL     1       0.823  -2.412   0.756  1.00  0.00     0.005 C 
ENDBRANCH  18  19
ENDBRANCH  15  18
ENDBRANCH   1  15
TORSDOF 5
