REMARK  4 active torsions:
REMARK  status: ('A' for Active; 'I' for Inactive)
REMARK    1  A    between atoms: C_2  and  C_3 
REMARK    2  A    between atoms: C_3  and  N_4 
REMARK       I    between atoms: N_4  and  C_5 
REMARK       I    between atoms: C_5  and  N_7 
REMARK    3  A    between atoms: N_7  and  C_8 
REMARK    4  A    between atoms: C_11  and  N_15 
ROOT
HETATM    1  C   UNL     1       7.751   0.642  -2.999  1.00  0.00     0.051 A 
HETATM    2  C   UNL     1       7.855   1.911  -3.541  1.00  0.00     0.035 A 
HETATM    3  C   UNL     1       8.672   2.119  -4.659  1.00  0.00     0.051 A 
HETATM    4  C   UNL     1       9.332   1.056  -5.281  1.00  0.00     0.103 A 
HETATM    5  N   UNL     1       9.204  -0.184  -4.756  1.00  0.00    -0.350 N 
ATOM      6  HN  UNL     1       9.667  -0.978  -5.198  1.00  0.00     0.166 HD
HETATM    7  C   UNL     1       8.454  -0.367  -3.635  1.00  0.00     0.119 A 
ENDROOT
BRANCH   1   8
HETATM    8  N   UNL     1       6.955   0.455  -1.853  1.00  0.00    -0.308 N 
HETATM    9  C   UNL     1       7.356  -0.345  -0.806  1.00  0.00     0.321 C 
HETATM   10  N   UNL     1       6.462  -0.269   0.243  1.00  0.00    -0.339 N 
HETATM   11  O   UNL     1       8.402  -0.977  -0.748  1.00  0.00    -0.247 OA
HETATM   12  H   UNL     1       5.490  -0.323  -0.030  1.00  0.00     0.164 HD
HETATM   13  H   UNL     1       6.375   1.230  -1.566  1.00  0.00     0.170 HD
BRANCH  10  14
HETATM   14  C   UNL     1       6.819  -0.909   1.485  1.00  0.00     0.150 C 
BRANCH  14  15
HETATM   15  C   UNL     1       5.917  -0.386   2.556  1.00  0.00    -0.018 C 
HETATM   16  C   UNL     1       5.182  -1.157   3.370  1.00  0.00     0.008 C 
ENDBRANCH  14  15
ENDBRANCH  10  14
ENDBRANCH   1   8
BRANCH   4  17
HETATM   17  N   UNL     1      10.117   1.221  -6.404  1.00  0.00    -0.367 N 
HETATM   18  C   UNL     1      10.371   2.490  -7.081  1.00  0.00     0.124 C 
HETATM   19  C   UNL     1       9.749   2.454  -8.476  1.00  0.00     0.020 C 
HETATM   20  C   UNL     1      10.283   1.266  -9.274  1.00  0.00     0.003 C 
HETATM   21  C   UNL     1      10.077  -0.040  -8.507  1.00  0.00     0.020 C 
HETATM   22  C   UNL     1      10.652   0.038  -7.089  1.00  0.00     0.124 C 
ENDBRANCH   4  17
TORSDOF 4
