REMARK  4 active torsions:
REMARK  status: ('A' for Active; 'I' for Inactive)
REMARK    1  A    between atoms: N_6  and  C_7 
REMARK    2  A    between atoms: C_7  and  C_8 
REMARK    3  A    between atoms: C_8  and  O_9 
REMARK    4  A    between atoms: C_8  and  C_10 
ROOT
HETATM    1  C   UNL     1       6.589   0.100  -0.076  1.00  0.00     0.169 C 
ENDROOT
BRANCH   1   2
HETATM    2  N   UNL     1       5.134   0.014   0.013  1.00  0.00    -0.307 N 
HETATM    3  C   UNL     1       4.372  -0.028  -1.122  1.00  0.00     0.186 A 
HETATM    4  N   UNL     1       3.082  -0.039  -1.144  1.00  0.00    -0.355 N 
HETATM    5  C   UNL     1       2.430  -0.011   0.064  1.00  0.00     0.017 A 
ATOM      6  HN  UNL     1       2.567  -0.067  -2.024  1.00  0.00     0.166 HD
HETATM    7  C   UNL     1       0.927   0.038  -0.042  1.00  0.00     0.069 C 
HETATM    8  C   UNL     1       3.054  -0.026   1.256  1.00  0.00     0.028 A 
HETATM    9  C   UNL     1       4.541  -0.053   1.251  1.00  0.00     0.256 A 
HETATM   10  C   UNL     1       2.355   0.002   2.580  1.00  0.00     0.056 C 
HETATM   11  O   UNL     1       5.180  -0.116   2.300  1.00  0.00    -0.267 OA
ENDBRANCH   1   2
BRANCH   1  12
HETATM   12  C   UNL     1       7.294  -1.275  -0.095  1.00  0.00     0.169 C 
BRANCH  12  13
HETATM   13  O   UNL     1       6.851  -1.979  -1.265  1.00  0.00    -0.389 OA
HETATM   14  H   UNL     1       7.426  -1.722  -2.007  1.00  0.00     0.210 HD
ENDBRANCH  12  13
BRANCH  12  15
HETATM   15  C   UNL     1       8.818  -1.224  -0.130  1.00  0.00    -0.025 A 
HETATM   16  C   UNL     1       9.553  -0.024  -0.117  1.00  0.00     0.013 A 
HETATM   17  C   UNL     1      10.951  -0.032  -0.189  1.00  0.00     0.046 A 
HETATM   18  C   UNL     1      11.630  -1.240  -0.270  1.00  0.00     0.154 A 
HETATM   19  F   UNL     1      12.967  -1.237  -0.358  1.00  0.00    -0.203 F 
HETATM   20  C   UNL     1      10.928  -2.435  -0.265  1.00  0.00     0.155 A 
HETATM   21  F   UNL     1      11.583  -3.602  -0.344  1.00  0.00    -0.203 F 
HETATM   22  C   UNL     1       9.535  -2.436  -0.192  1.00  0.00     0.055 A 
ENDBRANCH  12  15
ENDBRANCH   1  12
TORSDOF 4
