REMARK  4 active torsions:
REMARK  status: ('A' for Active; 'I' for Inactive)
REMARK       I    between atoms: N_1  and  C_2 
REMARK    1  A    between atoms: C_2  and  C_4 
REMARK    2  A    between atoms: C_7  and  C_8 
REMARK    3  A    between atoms: C_8  and  N_9 
REMARK    4  A    between atoms: N_9  and  C_10 
ROOT
HETATM    1  C   UNL     1       4.577   3.028   2.579  1.00  0.00     0.127 C 
ENDROOT
BRANCH   1   2
HETATM    2  C   UNL     1       3.098   2.673   2.329  1.00  0.00     0.136 C 
HETATM    3  C   UNL     1       2.628   1.562   3.256  1.00  0.00     0.036 C 
HETATM    4  C   UNL     1       2.790   0.290   2.456  1.00  0.00     0.044 C 
HETATM    5  C   UNL     1       3.141   0.742   1.046  1.00  0.00     0.213 C 
HETATM    6  O   UNL     1       2.914   2.158   0.996  1.00  0.00    -0.370 OA
BRANCH   5   7
HETATM    7  C   UNL     1       2.360  -0.049  -0.010  1.00  0.00     0.244 C 
HETATM    8  N   UNL     1       1.637   0.710  -0.882  1.00  0.00    -0.368 N 
HETATM    9  H   UNL     1       1.108   0.256  -1.612  1.00  0.00     0.159 HD
HETATM   10  H   UNL     1       1.639   1.720  -0.797  1.00  0.00     0.159 HD
HETATM   11  O   UNL     1       2.382  -1.273  -0.092  1.00  0.00    -0.271 OA
ENDBRANCH   5   7
ENDBRANCH   1   2
BRANCH   1  12
HETATM   12  N   UNL     1       5.002   4.109   1.700  1.00  0.00    -0.262 NA
HETATM   13  H   UNL     1       4.830   3.953   0.710  1.00  0.00     0.130 HD
BRANCH  12  14
HETATM   14  C   UNL     1       6.342   4.437   1.846  1.00  0.00     0.157 A 
HETATM   15  N   UNL     1       6.977   4.880   0.752  1.00  0.00    -0.341 N 
HETATM   16  C   UNL     1       8.291   5.181   0.887  1.00  0.00     0.116 A 
ATOM     17  HN  UNL     1       6.494   4.986  -0.140  1.00  0.00     0.167 HD
HETATM   18  C   UNL     1       8.990   5.041   2.061  1.00  0.00     0.064 A 
HETATM   19 CL   UNL     1      10.654   5.401   2.193  1.00  0.00    -0.081 Cl
HETATM   20  C   UNL     1       8.253   4.579   3.121  1.00  0.00     0.116 A 
HETATM   21  N   UNL     1       6.941   4.274   3.038  1.00  0.00    -0.341 N 
ATOM     22  HN  UNL     1       6.424   3.933   3.848  1.00  0.00     0.167 HD
ENDBRANCH  12  14
ENDBRANCH   1  12
TORSDOF 4
