REMARK  2 active torsions:
REMARK  status: ('A' for Active; 'I' for Inactive)
REMARK       I    between atoms: C_2  and  N_4 
REMARK    1  A    between atoms: C_7  and  N_10 
REMARK       I    between atoms: N_10  and  C_11 
REMARK       I    between atoms: C_11  and  N_13 
REMARK    2  A    between atoms: N_13  and  C_14 
ROOT
HETATM    1  N   UNL     1       5.049   3.375  -2.938  1.00  0.00    -0.338 N 
HETATM    2  C   UNL     1       5.658   3.700  -4.107  1.00  0.00     0.322 C 
HETATM    3  O   UNL     1       5.051   3.983  -5.136  1.00  0.00    -0.247 OA
HETATM    4  N   UNL     1       7.026   3.725  -4.086  1.00  0.00    -0.295 N 
HETATM    5  H   UNL     1       5.687   3.011  -2.233  1.00  0.00     0.164 HD
HETATM    6  H   UNL     1       7.431   4.019  -4.959  1.00  0.00     0.172 HD
ENDROOT
BRANCH   1   7
HETATM    7  C   UNL     1       3.620   3.245  -2.738  1.00  0.00     0.089 C 
HETATM    8  C   UNL     1       3.270   3.461  -1.260  1.00  0.00     0.045 C 
HETATM    9  C   UNL     1       3.682   2.279  -0.383  1.00  0.00     0.127 C 
HETATM   10  N   UNL     1       3.148   1.033  -0.921  1.00  0.00    -0.352 N 
HETATM   11  C   UNL     1       2.600   0.104  -0.048  1.00  0.00     0.215 C 
HETATM   12  C   UNL     1       3.511   0.749  -2.309  1.00  0.00     0.127 C 
HETATM   13  C   UNL     1       1.898  -1.079  -0.666  1.00  0.00     0.117 C 
HETATM   14  O   UNL     1       2.610   0.246   1.175  1.00  0.00    -0.274 OA
HETATM   15  C   UNL     1       3.106   1.890  -3.234  1.00  0.00     0.045 C 
ENDBRANCH   1   7
BRANCH   4  16
HETATM   16  C   UNL     1       7.880   3.433  -3.015  1.00  0.00     0.108 A 
HETATM   17  C   UNL     1       9.245   3.602  -3.195  1.00  0.00     0.049 A 
HETATM   18  C   UNL     1      10.100   3.334  -2.126  1.00  0.00     0.005 A 
HETATM   19  C   UNL     1       9.571   2.908  -0.915  1.00  0.00     0.017 A 
HETATM   20  C   UNL     1       8.204   2.755  -0.822  1.00  0.00     0.089 A 
HETATM   21  N   UNL     1       7.355   2.995  -1.845  1.00  0.00    -0.352 N 
ATOM     22  HN  UNL     1       6.351   2.851  -1.740  1.00  0.00     0.166 HD
ENDBRANCH   4  16
TORSDOF 2
