REMARK  8 active torsions:
REMARK  status: ('A' for Active; 'I' for Inactive)
REMARK    1  A    between atoms: C_2  and  N_3 
REMARK    2  A    between atoms: N_3  and  C_4 
REMARK    3  A    between atoms: N_3  and  C_11 
REMARK    4  A    between atoms: C_4  and  C_5 
REMARK    5  A    between atoms: C_12  and  N_13 
REMARK    6  A    between atoms: N_14  and  C_15 
REMARK    7  A    between atoms: C_15  and  C_16 
REMARK    8  A    between atoms: C_16  and  O_17 
ROOT
HETATM    1  C   UNL     1       4.377  -0.950  -1.295  1.00  0.00     0.138 A 
HETATM    2  C   UNL     1       5.018  -2.144  -1.312  1.00  0.00     0.116 A 
HETATM    3  N   UNL     1       6.354  -2.242  -1.687  1.00  0.00    -0.286 N 
HETATM    4  C   UNL     1       7.132  -1.115  -1.938  1.00  0.00     0.330 A 
HETATM    5  O   UNL     1       8.336  -1.130  -2.199  1.00  0.00    -0.246 OA
HETATM    6  N   UNL     1       6.492   0.088  -1.871  1.00  0.00    -0.273 N 
HETATM    7  C   UNL     1       5.165   0.280  -1.641  1.00  0.00     0.279 A 
HETATM    8  O   UNL     1       4.657   1.398  -1.705  1.00  0.00    -0.265 OA
HETATM    9  H   UNL     1       7.050   0.903  -2.074  1.00  0.00     0.173 HD
ENDROOT
BRANCH   1  10
HETATM   10  N   UNL     1       2.987  -0.843  -1.043  1.00  0.00    -0.370 N 
BRANCH  10  11
HETATM   11  C   UNL     1       2.508  -0.701   0.344  1.00  0.00     0.119 C 
HETATM   12  C   UNL     1       2.535   0.729   0.867  1.00  0.00     0.026 C 
ENDBRANCH  10  11
BRANCH  10  13
HETATM   13  C   UNL     1       2.130  -0.257  -2.096  1.00  0.00     0.161 C 
BRANCH  13  14
HETATM   14  C   UNL     1       1.110  -1.247  -2.629  1.00  0.00    -0.040 A 
HETATM   15  C   UNL     1      -0.256  -0.925  -2.621  1.00  0.00     0.009 A 
HETATM   16  C   UNL     1      -1.190  -1.756  -3.245  1.00  0.00     0.001 A 
HETATM   17  C   UNL     1      -0.775  -2.926  -3.876  1.00  0.00     0.000 A 
HETATM   18  C   UNL     1       0.574  -3.272  -3.874  1.00  0.00     0.001 A 
HETATM   19  C   UNL     1       1.511  -2.436  -3.259  1.00  0.00     0.009 A 
ENDBRANCH  13  14
ENDBRANCH  10  13
ENDBRANCH   1  10
BRANCH   2  20
HETATM   20  N   UNL     1       4.268  -3.276  -0.968  1.00  0.00    -0.286 NA
HETATM   21  H   UNL     1       3.336  -2.940  -0.698  1.00  0.00     0.125 HD
HETATM   22  H   UNL     1       4.101  -3.815  -1.811  1.00  0.00     0.125 HD
ENDBRANCH   2  20
BRANCH   3  23
HETATM   23  C   UNL     1       7.044  -3.544  -1.696  1.00  0.00     0.161 C 
BRANCH  23  24
HETATM   24  C   UNL     1       6.522  -4.615  -2.669  1.00  0.00     0.187 C 
BRANCH  24  25
HETATM   25  O   UNL     1       6.489  -4.149  -4.019  1.00  0.00    -0.394 OA
HETATM   26  C   UNL     1       6.017  -5.164  -4.901  1.00  0.00     0.201 C 
ENDBRANCH  24  25
ENDBRANCH  23  24
ENDBRANCH   3  23
TORSDOF 8
