REMARK  4 active torsions:
REMARK  status: ('A' for Active; 'I' for Inactive)
REMARK    1  A    between atoms: C_2  and  C_3 
REMARK    2  A    between atoms: C_2  and  N_10 
REMARK    3  A    between atoms: C_3  and  N_4 
REMARK       I    between atoms: N_10  and  C_11 
REMARK    4  A    between atoms: C_11  and  C_13 
ROOT
HETATM    1  C   UNL     1       1.020  -0.280   0.365  1.00  0.00     0.034 C 
HETATM    2  C   UNL     1       2.467   0.109   0.065  1.00  0.00     0.098 C 
ENDROOT
BRANCH   2   3
HETATM    3  C   UNL     1       2.595   0.946  -1.224  1.00  0.00     0.153 C 
BRANCH   3   4
HETATM    4  N   UNL     1       2.140   0.266  -2.419  1.00  0.00    -0.350 N 
HETATM    5  C   UNL     1       1.126   0.667  -3.243  1.00  0.00     0.108 A 
HETATM    6  C   UNL     1       1.068  -0.294  -4.226  1.00  0.00     0.106 A 
HETATM    7  N   UNL     1       2.021  -1.256  -4.021  1.00  0.00    -0.361 N 
HETATM    8  C   UNL     1       2.664  -0.884  -2.937  1.00  0.00     0.182 A 
ATOM      9  HN  UNL     1       2.195  -2.085  -4.589  1.00  0.00     0.166 HD
ENDBRANCH   3   4
ENDBRANCH   2   3
BRANCH   2  10
HETATM   10  N   UNL     1       3.031   0.821   1.215  1.00  0.00    -0.355 N 
HETATM   11  C   UNL     1       4.393   0.856   1.435  1.00  0.00     0.222 C 
HETATM   12  O   UNL     1       5.188   0.280   0.702  1.00  0.00    -0.273 OA
HETATM   13  H   UNL     1       2.422   1.375   1.804  1.00  0.00     0.162 HD
BRANCH  11  14
HETATM   14  C   UNL     1       4.802   1.652   2.666  1.00  0.00     0.078 C 
HETATM   15  C   UNL     1       4.499   3.149   2.524  1.00  0.00     0.014 C 
HETATM   16  C   UNL     1       5.704   3.895   3.101  1.00  0.00     0.001 C 
HETATM   17  C   UNL     1       6.571   2.836   3.764  1.00  0.00     0.001 C 
HETATM   18  C   UNL     1       6.304   1.587   2.943  1.00  0.00     0.014 C 
ENDBRANCH  11  14
ENDBRANCH   2  10
TORSDOF 4
