REMARK  4 active torsions:
REMARK  status: ('A' for Active; 'I' for Inactive)
REMARK    1  A    between atoms: S_2  and  N_5 
REMARK    2  A    between atoms: N_5  and  C_6 
REMARK    3  A    between atoms: C_6  and  C_7 
REMARK    4  A    between atoms: C_10  and  N_14 
ROOT
HETATM    1  C   UNL     1       5.210  -2.909   0.978  1.00  0.00    -0.029 A 
HETATM    2  C   UNL     1       6.464  -3.050   1.566  1.00  0.00     0.013 A 
HETATM    3  C   UNL     1       6.962  -4.324   1.849  1.00  0.00     0.049 A 
HETATM    4  C   UNL     1       6.210  -5.456   1.547  1.00  0.00     0.103 A 
HETATM    5  N   UNL     1       4.976  -5.313   1.012  1.00  0.00    -0.352 N 
ATOM      6  HN  UNL     1       4.406  -6.134   0.810  1.00  0.00     0.166 HD
HETATM    7  C   UNL     1       4.503  -4.074   0.746  1.00  0.00     0.098 A 
ENDROOT
BRANCH   1   8
HETATM    8  C   UNL     1       4.661  -1.566   0.587  1.00  0.00     0.144 C 
BRANCH   8   9
HETATM    9  N   UNL     1       5.526  -0.928  -0.432  1.00  0.00    -0.216 NA
HETATM   10  H   UNL     1       6.483  -0.852  -0.092  1.00  0.00     0.139 HD
BRANCH   9  11
HETATM   11  S   UNL     1       4.961   0.570  -0.956  1.00  0.00     0.205 S 
HETATM   12  C   UNL     1       6.225   1.020  -2.127  1.00  0.00     0.179 C 
HETATM   13  O   UNL     1       5.052   1.455   0.182  1.00  0.00    -0.212 OA
HETATM   14  O   UNL     1       3.718   0.355  -1.657  1.00  0.00    -0.212 OA
ENDBRANCH   9  11
ENDBRANCH   8   9
ENDBRANCH   1   8
BRANCH   4  15
HETATM   15  N   UNL     1       6.638  -6.739   1.822  1.00  0.00    -0.363 N 
HETATM   16  C   UNL     1       6.166  -7.798   0.910  1.00  0.00     0.150 C 
HETATM   17  C   UNL     1       6.136  -9.134   1.665  1.00  0.00     0.187 C 
HETATM   18  O   UNL     1       7.424  -9.451   2.223  1.00  0.00    -0.388 OA
HETATM   19  C   UNL     1       7.832  -8.422   3.138  1.00  0.00     0.187 C 
HETATM   20  C   UNL     1       7.925  -7.047   2.452  1.00  0.00     0.150 C 
ENDBRANCH   4  15
TORSDOF 4
