REMARK  4 active torsions:
REMARK  status: ('A' for Active; 'I' for Inactive)
REMARK       I    between atoms: C_2  and  N_3 
REMARK       I    between atoms: C_2  and  N_12 
REMARK    1  A    between atoms: N_3  and  C_4 
REMARK    2  A    between atoms: C_4  and  C_5 
REMARK    3  A    between atoms: C_5  and  N_6 
REMARK    4  A    between atoms: N_12  and  C_13 
ROOT
HETATM    1  O   UNL     1       1.413  -0.970   0.613  1.00  0.00    -0.247 OA
HETATM    2  C   UNL     1       2.454  -0.418   0.260  1.00  0.00     0.322 C 
HETATM    3  N   UNL     1       2.910  -0.427  -1.022  1.00  0.00    -0.341 N 
HETATM    4  N   UNL     1       3.248   0.161   1.200  1.00  0.00    -0.289 N 
HETATM    5  H   UNL     1       3.626   0.261  -1.247  1.00  0.00     0.164 HD
HETATM    6  H   UNL     1       2.962   0.026   2.157  1.00  0.00     0.172 HD
ENDROOT
BRANCH   3   7
HETATM    7  C   UNL     1       2.201  -1.084  -2.102  1.00  0.00     0.154 C 
BRANCH   7   8
HETATM    8  C   UNL     1       3.177  -1.651  -3.152  1.00  0.00     0.292 C 
BRANCH   8   9
HETATM    9  N   UNL     1       2.530  -2.354  -4.277  1.00  0.00     0.090 N 
HETATM   10  C   UNL     1       1.774  -3.551  -3.877  1.00  0.00     0.272 C 
HETATM   11  C   UNL     1       2.653  -4.718  -3.419  1.00  0.00     0.030 C 
HETATM   12  C   UNL     1       3.679  -5.080  -4.488  1.00  0.00     0.003 C 
HETATM   13  C   UNL     1       4.451  -3.848  -4.948  1.00  0.00     0.030 C 
HETATM   14  C   UNL     1       3.504  -2.704  -5.327  1.00  0.00     0.272 C 
ENDBRANCH   8   9
ENDBRANCH   7   8
ENDBRANCH   3   7
BRANCH   4  15
HETATM   15  C   UNL     1       4.419   0.816   0.961  1.00  0.00     0.152 A 
HETATM   16  N   UNL     1       4.911   1.200  -0.192  1.00  0.00    -0.346 N 
HETATM   17  C   UNL     1       6.130   1.814   0.027  1.00  0.00     0.097 A 
ATOM     18  HN  UNL     1       4.467   1.068  -1.101  1.00  0.00     0.167 HD
HETATM   19  C   UNL     1       6.556   1.841   1.339  1.00  0.00     0.070 A 
HETATM   20  S   UNL     1       5.350   1.153   2.348  1.00  0.00    -0.064 SA
ENDBRANCH   4  15
TORSDOF 4
