REMARK  4 active torsions:
REMARK  status: ('A' for Active; 'I' for Inactive)
REMARK    1  A    between atoms: C_2  and  C_5 
REMARK    2  A    between atoms: C_8  and  N_9 
REMARK       I    between atoms: N_9  and  C_10 
REMARK       I    between atoms: C_10  and  N_12 
REMARK    3  A    between atoms: N_12  and  C_13 
REMARK    4  A    between atoms: C_17  and  C_19 
ROOT
HETATM    1  N   UNL     1       3.899  -0.224   5.803  1.00  0.00    -0.294 N 
HETATM    2  C   UNL     1       4.527  -1.422   6.039  1.00  0.00     0.322 C 
HETATM    3  O   UNL     1       4.661  -2.231   5.125  1.00  0.00    -0.247 OA
HETATM    4  N   UNL     1       4.892  -1.663   7.328  1.00  0.00    -0.338 N 
HETATM    5  H   UNL     1       3.497  -0.143   4.880  1.00  0.00     0.172 HD
HETATM    6  H   UNL     1       4.918  -0.854   7.942  1.00  0.00     0.164 HD
ENDROOT
BRANCH   1   7
HETATM    7  C   UNL     1       3.678   0.798   6.737  1.00  0.00     0.123 A 
HETATM    8  C   UNL     1       2.764   1.801   6.478  1.00  0.00     0.052 A 
HETATM    9  C   UNL     1       2.485   2.714   7.495  1.00  0.00     0.031 A 
HETATM   10  C   UNL     1       3.144   2.602   8.718  1.00  0.00     0.033 A 
HETATM   11  N   UNL     1       4.076   1.647   8.894  1.00  0.00    -0.303 N 
HETATM   12  N   UNL     1       4.338   0.759   7.908  1.00  0.00    -0.285 N 
ATOM     13  HN  UNL     1       4.587   1.593   9.775  1.00  0.00     0.186 HD
ATOM     14  HN  UNL     1       5.051   0.045   8.056  1.00  0.00     0.188 HD
BRANCH  10  15
HETATM   15  C   UNL     1       2.866   3.505   9.913  1.00  0.00    -0.007 C 
HETATM   16  C   UNL     1       1.381   3.423  10.307  1.00  0.00     0.021 C 
HETATM   17  C   UNL     1       3.249   4.952   9.566  1.00  0.00     0.021 C 
HETATM   18  C   UNL     1       3.701   3.070  11.145  1.00  0.00     0.021 C 
ENDBRANCH  10  15
ENDBRANCH   1   7
BRANCH   4  19
HETATM   19  C   UNL     1       5.503  -2.890   7.816  1.00  0.00     0.090 C 
HETATM   20  C   UNL     1       5.095  -3.150   9.273  1.00  0.00     0.051 C 
HETATM   21  C   UNL     1       5.946  -2.393  10.288  1.00  0.00     0.170 C 
HETATM   22  O   UNL     1       7.336  -2.553  10.015  1.00  0.00    -0.385 OA
HETATM   23  C   UNL     1       7.677  -2.006   8.737  1.00  0.00     0.127 C 
HETATM   24  C   UNL     1       7.024  -2.859   7.649  1.00  0.00     0.057 C 
BRANCH  23  25
HETATM   25  C   UNL     1       9.173  -1.917   8.570  1.00  0.00     0.015 A 
HETATM   26  C   UNL     1      10.079  -3.124   8.596  1.00  0.00     0.007 A 
HETATM   27  C   UNL     1      10.123  -2.137   9.726  1.00  0.00     0.007 A 
ENDBRANCH  23  25
ENDBRANCH   4  19
TORSDOF 4
