REMARK  5 active torsions:
REMARK  status: ('A' for Active; 'I' for Inactive)
REMARK    1  A    between atoms: C_2  and  N_3 
REMARK    2  A    between atoms: C_2  and  C_16 
REMARK       I    between atoms: N_3  and  C_4 
REMARK       I    between atoms: C_4  and  N_6 
REMARK    3  A    between atoms: N_6  and  C_7 
REMARK    4  A    between atoms: C_7  and  C_8 
REMARK    5  A    between atoms: C_8  and  C_9 
ROOT
HETATM    1  N   UNL     1       2.835  -1.420  -0.001  1.00  0.00    -0.336 N 
HETATM    2  C   UNL     1       2.669  -2.169   1.134  1.00  0.00     0.316 C 
HETATM    3  O   UNL     1       2.134  -1.758   2.156  1.00  0.00    -0.247 OA
HETATM    4  N   UNL     1       3.146  -3.447   0.974  1.00  0.00    -0.343 N 
HETATM    5  H   UNL     1       3.647  -1.660  -0.554  1.00  0.00     0.164 HD
HETATM    6  H   UNL     1       3.192  -3.776   0.017  1.00  0.00     0.164 HD
ENDROOT
BRANCH   1   7
HETATM    7  C   UNL     1       2.424  -0.013  -0.055  1.00  0.00     0.111 C 
HETATM    8  C   UNL     1       2.086   0.336  -1.505  1.00  0.00     0.035 C 
BRANCH   7   9
HETATM    9  C   UNL     1       3.509   0.907   0.552  1.00  0.00     0.143 C 
HETATM   10  C   UNL     1       3.102   2.370   0.709  1.00  0.00     0.036 C 
HETATM   11  C   UNL     1       4.353   3.161   0.384  1.00  0.00     0.029 C 
HETATM   12  C   UNL     1       5.404   2.118   0.074  1.00  0.00     0.168 C 
HETATM   13  O   UNL     1       4.689   0.929  -0.277  1.00  0.00    -0.384 OA
ENDBRANCH   7   9
ENDBRANCH   1   7
BRANCH   4  14
HETATM   14  C   UNL     1       2.838  -4.449   1.982  1.00  0.00     0.130 C 
BRANCH  14  15
HETATM   15  C   UNL     1       3.375  -5.840   1.648  1.00  0.00     0.077 C 
BRANCH  15  16
HETATM   16  C   UNL     1       2.683  -6.471   0.479  1.00  0.00     0.018 A 
HETATM   17  C   UNL     1       1.568  -7.288   0.524  1.00  0.00     0.076 A 
HETATM   18  S   UNL     1       1.156  -7.810  -1.054  1.00  0.00    -0.087 SA
HETATM   19  C   UNL     1       2.479  -6.915  -1.684  1.00  0.00     0.046 A 
HETATM   20  C   UNL     1       2.777  -6.932  -3.143  1.00  0.00     0.076 C 
HETATM   21  N   UNL     1       3.184  -6.245  -0.795  1.00  0.00    -0.357 N 
ATOM     22  HN  UNL     1       3.982  -5.647  -1.012  1.00  0.00     0.166 HD
ENDBRANCH  15  16
ENDBRANCH  14  15
ENDBRANCH   4  14
TORSDOF 5
