REMARK  5 active torsions:
REMARK  status: ('A' for Active; 'I' for Inactive)
REMARK    1  A    between atoms: C_2  and  N_3 
REMARK    2  A    between atoms: C_5  and  N_6 
REMARK       I    between atoms: N_6  and  C_7 
REMARK       I    between atoms: C_7  and  N_9 
REMARK    3  A    between atoms: N_9  and  C_10 
REMARK    4  A    between atoms: C_10  and  C_11 
REMARK    5  A    between atoms: C_11  and  C_17 
REMARK       I    between atoms: C_17  and  N_19 
ROOT
HETATM    1  N   UNL     1       1.509   4.848   0.340  1.00  0.00    -0.312 N 
HETATM    2  C   UNL     1       0.583   4.698   1.349  1.00  0.00     0.298 C 
HETATM    3  O   UNL     1       0.452   3.691   2.038  1.00  0.00    -0.254 OA
HETATM    4  N   UNL     1      -0.277   5.782   1.436  1.00  0.00    -0.243 NA
HETATM    5  H   UNL     1       1.211   5.499  -0.372  1.00  0.00     0.170 HD
HETATM    6  H   UNL     1       0.188   6.686   1.388  1.00  0.00     0.132 HD
ENDROOT
BRANCH   4   7
HETATM    7  C   UNL     1      -1.298   5.688   2.460  1.00  0.00     0.116 C 
BRANCH   7   8
HETATM    8  C   UNL     1      -2.481   6.688   2.406  1.00  0.00     0.056 C 
HETATM    9  C   UNL     1      -3.435   6.300   3.567  1.00  0.00     0.046 C 
HETATM   10  C   UNL     1      -4.147   4.975   3.285  1.00  0.00     0.168 C 
HETATM   11  O   UNL     1      -4.877   5.066   2.064  1.00  0.00    -0.391 OA
HETATM   12  C   UNL     1      -4.045   5.313   0.932  1.00  0.00     0.168 C 
HETATM   13  C   UNL     1      -3.289   6.626   1.092  1.00  0.00     0.046 C 
BRANCH   8  14
HETATM   14  C   UNL     1      -1.923   8.110   2.559  1.00  0.00     0.225 C 
HETATM   15  O   UNL     1      -0.744   8.396   2.356  1.00  0.00    -0.273 OA
HETATM   16  N   UNL     1      -2.807   9.109   2.831  1.00  0.00    -0.369 N 
HETATM   17  H   UNL     1      -3.805   8.982   2.917  1.00  0.00     0.159 HD
HETATM   18  H   UNL     1      -2.445  10.055   2.863  1.00  0.00     0.159 HD
ENDBRANCH   8  14
ENDBRANCH   7   8
ENDBRANCH   4   7
BRANCH   1  19
HETATM   19  C   UNL     1       2.334   3.809  -0.049  1.00  0.00     0.051 A 
HETATM   20  C   UNL     1       2.990   3.004   0.810  1.00  0.00     0.123 A 
HETATM   21  N   UNL     1       3.749   1.926   0.368  1.00  0.00    -0.323 N 
HETATM   22  C   UNL     1       3.809   1.574  -0.979  1.00  0.00     0.247 A 
HETATM   23  C   UNL     1       3.087   2.475  -1.921  1.00  0.00     0.077 A 
HETATM   24  O   UNL     1       4.408   0.598  -1.423  1.00  0.00    -0.268 OA
HETATM   25  C   UNL     1       2.430   3.546  -1.465  1.00  0.00     0.036 A 
BRANCH  21  26
HETATM   26  C   UNL     1       4.447   1.097   1.345  1.00  0.00     0.127 C 
HETATM   27  C   UNL     1       3.566  -0.010   1.904  1.00  0.00     0.027 C 
ENDBRANCH  21  26
ENDBRANCH   1  19
TORSDOF 5
