REMARK  8 active torsions:
REMARK  status: ('A' for Active; 'I' for Inactive)
REMARK    1  A    between atoms: C_2  and  N_7 
REMARK    2  A    between atoms: N_3  and  C_16 
REMARK    3  A    between atoms: N_13  and  C_22 
REMARK    4  A    between atoms: C_15  and  C_16 
REMARK    5  A    between atoms: C_15  and  C_25 
REMARK    6  A    between atoms: C_22  and  C_29 
REMARK    7  A    between atoms: C_25  and  O_26 
REMARK    8  A    between atoms: O_27  and  C_29 
ROOT
HETATM    1  C   UNL     1      -0.345  -0.835  -1.285  1.00  0.00     0.122 A 
HETATM    2  C   UNL     1      -0.832  -1.527  -0.150  1.00  0.00     0.135 A 
HETATM    3  N   UNL     1       0.238   0.950  -2.401  1.00  0.00    -0.326 N 
HETATM    4  C   UNL     1      -0.276   0.546  -1.202  1.00  0.00     0.140 A 
HETATM    5  N   UNL     1       0.117  -1.253  -2.524  1.00  0.00    -0.346 N 
ATOM      6  HN  UNL     1       0.191  -2.212  -2.863  1.00  0.00     0.167 HD
HETATM    7  C   UNL     1       0.439  -0.154  -3.170  1.00  0.00     0.185 A 
HETATM    8  N   UNL     1      -1.149  -0.750   0.934  1.00  0.00    -0.337 N 
ATOM      9  HN  UNL     1      -1.464  -1.188   1.800  1.00  0.00     0.168 HD
HETATM   10  N   UNL     1      -0.623   1.332  -0.172  1.00  0.00    -0.336 N 
ATOM     11  HN  UNL     1      -0.572   2.351  -0.174  1.00  0.00     0.168 HD
HETATM   12  C   UNL     1      -1.046   0.591   0.859  1.00  0.00     0.183 A 
ENDROOT
BRANCH   2  13
HETATM   13  N   UNL     1      -0.965  -2.909  -0.056  1.00  0.00    -0.358 N 
HETATM   14  C   UNL     1      -1.472  -3.472   1.209  1.00  0.00     0.110 C 
HETATM   15  C   UNL     1      -1.122  -4.992   1.268  1.00  0.00     0.297 C 
HETATM   16  C   UNL     1      -2.966  -3.191   1.409  1.00  0.00     0.034 C 
HETATM   17  N   UNL     1      -1.462  -5.824   0.092  1.00  0.00     0.094 N 
HETATM   18  C   UNL     1      -0.903  -5.166  -1.111  1.00  0.00     0.292 C 
HETATM   19  C   UNL     1      -1.264  -3.672  -1.281  1.00  0.00     0.155 C 
BRANCH  17  20
HETATM   20  C   UNL     1      -2.889  -6.124  -0.085  1.00  0.00     0.303 C 
BRANCH  20  21
HETATM   21  C   UNL     1      -3.578  -6.847   1.093  1.00  0.00     0.142 C 
HETATM   22  C   UNL     1      -3.003  -8.236   1.328  1.00  0.00     0.041 C 
BRANCH  21  23
HETATM   23  O   UNL     1      -4.975  -6.991   0.814  1.00  0.00    -0.394 OA
HETATM   24  H   UNL     1      -5.395  -6.137   1.013  1.00  0.00     0.210 HD
ENDBRANCH  21  23
ENDBRANCH  20  21
ENDBRANCH  17  20
ENDBRANCH   2  13
BRANCH   3  25
HETATM   25  C   UNL     1       0.495   2.328  -2.781  1.00  0.00     0.147 C 
BRANCH  25  26
HETATM   26  C   UNL     1       1.903   2.801  -2.451  1.00  0.00     0.040 C 
HETATM   27  C   UNL     1       2.304   2.907  -0.963  1.00  0.00     0.183 C 
HETATM   28  O   UNL     1       2.725   4.283  -1.151  1.00  0.00    -0.389 OA
HETATM   29  C   UNL     1       1.995   4.339  -2.403  1.00  0.00     0.183 C 
BRANCH  26  30
HETATM   30  C   UNL     1       3.003   2.148  -3.282  1.00  0.00     0.179 C 
BRANCH  30  31
HETATM   31  O   UNL     1       2.736   2.352  -4.665  1.00  0.00    -0.400 OA
HETATM   32  H   UNL     1       2.301   1.557  -5.016  1.00  0.00     0.209 HD
ENDBRANCH  30  31
ENDBRANCH  26  30
ENDBRANCH  25  26
ENDBRANCH   3  25
TORSDOF 8
