REMARK  2 active torsions:
REMARK  status: ('A' for Active; 'I' for Inactive)
REMARK    1  A    between atoms: C_8  and  N_9 
REMARK       I    between atoms: N_9  and  C_10 
REMARK       I    between atoms: C_10  and  N_12 
REMARK    2  A    between atoms: N_12  and  C_13 
ROOT
HETATM    1  N   UNL     1       2.500  -2.341   0.683  1.00  0.00    -0.337 N 
HETATM    2  C   UNL     1       3.208  -2.454   1.867  1.00  0.00     0.322 C 
HETATM    3  O   UNL     1       4.158  -1.728   2.127  1.00  0.00    -0.247 OA
HETATM    4  N   UNL     1       2.745  -3.494   2.630  1.00  0.00    -0.288 N 
HETATM    5  H   UNL     1       1.525  -2.600   0.714  1.00  0.00     0.164 HD
HETATM    6  H   UNL     1       2.153  -4.189   2.209  1.00  0.00     0.172 HD
ENDROOT
BRANCH   1   7
HETATM    7  C   UNL     1       2.896  -1.343  -0.307  1.00  0.00     0.093 C 
HETATM    8  C   UNL     1       2.373   0.071   0.053  1.00  0.00     0.004 C 
HETATM    9  C   UNL     1       0.845   0.147   0.178  1.00  0.00     0.012 C 
HETATM   10  C   UNL     1       2.890   1.089  -0.976  1.00  0.00     0.006 C 
HETATM   11  C   UNL     1       2.548   0.703  -2.413  1.00  0.00     0.001 C 
HETATM   12  C   UNL     1       3.007  -0.713  -2.751  1.00  0.00     0.006 C 
HETATM   13  C   UNL     1       2.503  -1.760  -1.742  1.00  0.00     0.004 C 
HETATM   14  C   UNL     1       3.069  -3.136  -2.113  1.00  0.00     0.012 C 
ENDBRANCH   1   7
BRANCH   4  15
HETATM   15  C   UNL     1       3.347  -3.812   3.817  1.00  0.00     0.168 A 
HETATM   16  N   UNL     1       4.204  -3.134   4.544  1.00  0.00    -0.279 N 
HETATM   17  N   UNL     1       4.607  -3.839   5.663  1.00  0.00    -0.303 N 
ATOM     18  HN  UNL     1       4.534  -2.197   4.311  1.00  0.00     0.189 HD
HETATM   19  C   UNL     1       4.029  -5.019   5.726  1.00  0.00     0.160 A 
ATOM     20  HN  UNL     1       5.270  -3.488   6.354  1.00  0.00     0.186 HD
HETATM   21  S   UNL     1       2.923  -5.342   4.451  1.00  0.00    -0.046 SA
ENDBRANCH   4  15
TORSDOF 2
