REMARK  5 active torsions:
REMARK  status: ('A' for Active; 'I' for Inactive)
REMARK    1  A    between atoms: C_2  and  C_5 
REMARK    2  A    between atoms: C_5  and  C_6 
REMARK       I    between atoms: C_6  and  N_8 
REMARK    3  A    between atoms: N_8  and  C_9 
REMARK    4  A    between atoms: C_9  and  C_10 
REMARK    5  A    between atoms: C_16  and  N_17 
ROOT
HETATM    1  C   UNL     1       7.033  -3.554  -1.946  1.00  0.00     0.004 A 
HETATM    2  C   UNL     1       7.040  -4.448  -0.856  1.00  0.00     0.014 A 
HETATM    3  C   UNL     1       7.469  -5.755  -1.017  1.00  0.00     0.018 A 
HETATM    4  C   UNL     1       7.860  -6.136  -2.276  1.00  0.00     0.089 A 
HETATM    5  N   UNL     1       7.829  -5.317  -3.352  1.00  0.00    -0.352 N 
ATOM      6  HN  UNL     1       8.114  -5.665  -4.267  1.00  0.00     0.166 HD
HETATM    7  C   UNL     1       7.418  -4.032  -3.211  1.00  0.00     0.111 A 
ENDROOT
BRANCH   1   8
HETATM    8  C   UNL     1       6.711  -2.116  -1.642  1.00  0.00     0.165 C 
BRANCH   8   9
HETATM    9  N   UNL     1       5.285  -1.860  -1.635  1.00  0.00    -0.357 N 
HETATM   10  C   UNL     1       4.795  -0.593  -1.419  1.00  0.00     0.218 C 
HETATM   11  O   UNL     1       5.518   0.371  -1.191  1.00  0.00    -0.274 OA
HETATM   12  H   UNL     1       4.657  -2.610  -1.892  1.00  0.00     0.162 HD
BRANCH  10  13
HETATM   13  C   UNL     1       3.280  -0.481  -1.478  1.00  0.00     0.111 C 
BRANCH  13  14
HETATM   14  C   UNL     1       2.545  -0.842  -0.168  1.00  0.00    -0.043 C 
HETATM   15  C   UNL     1       3.002   0.069   0.985  1.00  0.00     0.015 C 
HETATM   16  C   UNL     1       2.766  -2.311   0.223  1.00  0.00     0.015 C 
HETATM   17  C   UNL     1       1.034  -0.622  -0.384  1.00  0.00     0.015 C 
ENDBRANCH  13  14
ENDBRANCH  10  13
ENDBRANCH   8   9
ENDBRANCH   1   8
BRANCH   7  18
HETATM   18  N   UNL     1       7.520  -3.238  -4.328  1.00  0.00    -0.363 N 
HETATM   19  C   UNL     1       8.396  -3.658  -5.432  1.00  0.00     0.150 C 
HETATM   20  C   UNL     1       9.073  -2.385  -5.989  1.00  0.00     0.187 C 
HETATM   21  O   UNL     1       8.110  -1.389  -6.392  1.00  0.00    -0.388 OA
HETATM   22  C   UNL     1       7.231  -1.051  -5.301  1.00  0.00     0.187 C 
HETATM   23  C   UNL     1       6.497  -2.301  -4.790  1.00  0.00     0.150 C 
ENDBRANCH   7  18
TORSDOF 5
