REMARK  7 active torsions:
REMARK  status: ('A' for Active; 'I' for Inactive)
REMARK    1  A    between atoms: C_2  and  C_3 
REMARK    2  A    between atoms: C_2  and  N_18 
REMARK    3  A    between atoms: C_3  and  N_4 
REMARK    4  A    between atoms: N_4  and  C_5 
REMARK    5  A    between atoms: C_5  and  C_6 
REMARK    6  A    between atoms: C_5  and  C_14 
REMARK    7  A    between atoms: C_6  and  C_7 
ROOT
HETATM    1  C   UNL     1       3.198   3.327  -1.553  1.00  0.00     0.331 C 
ENDROOT
BRANCH   1   2
HETATM    2  N   UNL     1       2.738   1.916  -1.382  1.00  0.00     0.099 N 
HETATM    3  H   UNL     1       1.873   1.810  -1.914  1.00  0.00     0.316 HD
BRANCH   2   4
HETATM    4  C   UNL     1       2.550   1.459   0.004  1.00  0.00     0.305 C 
BRANCH   4   5
HETATM    5  C   UNL     1       2.162  -0.075   0.056  1.00  0.00     0.247 C 
HETATM    6  C   UNL     1       0.755  -0.194  -0.563  1.00  0.00     0.045 C 
BRANCH   5   7
HETATM    7  N   UNL     1       2.253  -0.658   1.434  1.00  0.00     0.102 N 
HETATM    8  C   UNL     1       3.645  -0.588   1.985  1.00  0.00     0.299 C 
HETATM    9  C   UNL     1       4.634  -1.577   1.333  1.00  0.00     0.198 C 
HETATM   10  O   UNL     1       4.175  -2.929   1.424  1.00  0.00    -0.387 OA
HETATM   11  C   UNL     1       2.850  -3.069   0.895  1.00  0.00     0.203 C 
HETATM   12  C   UNL     1       1.871  -2.103   1.603  1.00  0.00     0.243 C 
HETATM   13  C   UNL     1       0.416  -2.498   1.348  1.00  0.00     0.045 C 
ENDBRANCH   5   7
ENDBRANCH   4   5
ENDBRANCH   2   4
ENDBRANCH   1   2
BRANCH   1  14
HETATM   14  C   UNL     1       4.592   3.638  -0.952  1.00  0.00     0.083 C 
BRANCH  14  15
HETATM   15  C   UNL     1       5.768   2.877  -1.523  1.00  0.00    -0.053 A 
HETATM   16  C   UNL     1       6.807   3.556  -2.165  1.00  0.00     0.024 A 
HETATM   17  C   UNL     1       7.872   2.826  -2.670  1.00  0.00     0.088 A 
HETATM   18  N   UNL     1       7.985   1.485  -2.575  1.00  0.00    -0.375 N 
HETATM   19  C   UNL     1       6.979   0.845  -1.949  1.00  0.00     0.088 A 
ATOM     20  HN  UNL     1       8.788   0.984  -2.956  1.00  0.00     0.164 HD
HETATM   21  C   UNL     1       5.878   1.489  -1.411  1.00  0.00     0.024 A 
ENDBRANCH  14  15
ENDBRANCH   1  14
BRANCH   1  22
HETATM   22  C   UNL     1       3.107   3.828  -3.035  1.00  0.00     0.418 C 
HETATM   23  F   UNL     1       2.730   2.834  -3.876  1.00  0.00    -0.169 F 
HETATM   24  F   UNL     1       2.156   4.793  -3.135  1.00  0.00    -0.169 F 
HETATM   25  F   UNL     1       4.252   4.357  -3.510  1.00  0.00    -0.169 F 
ENDBRANCH   1  22
TORSDOF 7
