REMARK  3 active torsions:
REMARK  status: ('A' for Active; 'I' for Inactive)
REMARK    1  A    between atoms: C_2  and  N_3 
REMARK    2  A    between atoms: C_2  and  C_14 
REMARK       I    between atoms: N_3  and  C_4 
REMARK       I    between atoms: C_4  and  N_6 
REMARK    3  A    between atoms: N_6  and  C_7 
ROOT
HETATM    1  N   UNL     1       2.847   0.242  -1.503  1.00  0.00    -0.338 N 
HETATM    2  C   UNL     1       3.870  -0.294  -2.217  1.00  0.00     0.322 C 
HETATM    3  O   UNL     1       4.670  -1.112  -1.777  1.00  0.00    -0.247 OA
HETATM    4  N   UNL     1       3.951   0.090  -3.527  1.00  0.00    -0.295 N 
HETATM    5  H   UNL     1       2.365   1.009  -1.970  1.00  0.00     0.164 HD
HETATM    6  H   UNL     1       4.671  -0.397  -4.038  1.00  0.00     0.172 HD
ENDROOT
BRANCH   1   7
HETATM    7  C   UNL     1       2.479  -0.055  -0.130  1.00  0.00     0.086 C 
HETATM    8  C   UNL     1       0.945  -0.068  -0.066  1.00  0.00     0.032 C 
BRANCH   7   9
HETATM    9  C   UNL     1       3.091   0.991   0.844  1.00  0.00     0.011 C 
HETATM   10  C   UNL     1       4.628   1.054   0.780  1.00  0.00     0.037 C 
HETATM   11  C   UNL     1       5.279  -0.216   1.342  1.00  0.00     0.272 C 
HETATM   12  N   UNL     1       4.833  -0.578   2.697  1.00  0.00     0.084 N 
HETATM   13  C   UNL     1       5.503   0.212   3.722  1.00  0.00     0.309 C 
HETATM   14  C   UNL     1       3.373  -0.552   2.837  1.00  0.00     0.272 C 
HETATM   15  C   UNL     1       2.720   0.732   2.314  1.00  0.00     0.037 C 
ENDBRANCH   7   9
ENDBRANCH   1   7
BRANCH   4  16
HETATM   16  C   UNL     1       3.068   0.922  -4.224  1.00  0.00     0.108 A 
HETATM   17  C   UNL     1       3.108   0.909  -5.610  1.00  0.00     0.049 A 
HETATM   18  C   UNL     1       2.159   1.653  -6.309  1.00  0.00     0.005 A 
HETATM   19  C   UNL     1       1.225   2.410  -5.610  1.00  0.00     0.017 A 
HETATM   20  C   UNL     1       1.281   2.399  -4.230  1.00  0.00     0.089 A 
HETATM   21  N   UNL     1       2.176   1.671  -3.533  1.00  0.00    -0.352 N 
ATOM     22  HN  UNL     1       2.181   1.684  -2.513  1.00  0.00     0.166 HD
ENDBRANCH   4  16
TORSDOF 3
