REMARK  1 active torsions:
REMARK  status: ('A' for Active; 'I' for Inactive)
REMARK    1  A    between atoms: N_4  and  C_10 
ROOT
HETATM    1  C   UNL     1       1.882   1.383  -3.537  1.00  0.00     0.075 A 
HETATM    2  C   UNL     1       2.082   2.870  -3.449  1.00  0.00     0.138 A 
HETATM    3  N   UNL     1       1.511   3.801  -4.141  1.00  0.00    -0.307 N 
ATOM      4  HN  UNL     1       1.710   4.789  -3.986  1.00  0.00     0.186 HD
HETATM    5  N   UNL     1       0.633   3.384  -5.084  1.00  0.00    -0.265 N 
HETATM    6  C   UNL     1       0.370   2.080  -5.395  1.00  0.00     0.283 A 
HETATM    7  O   UNL     1      -0.407   1.795  -6.304  1.00  0.00    -0.265 OA
HETATM    8  C   UNL     1       1.059   1.052  -4.557  1.00  0.00     0.131 A 
HETATM    9 CL   UNL     1       0.609  -0.576  -4.960  1.00  0.00    -0.076 Cl
HETATM   10  H   UNL     1       0.175   4.099  -5.640  1.00  0.00     0.190 HD
ENDROOT
BRANCH   1  11
HETATM   11  N   UNL     1       2.561   0.582  -2.597  1.00  0.00    -0.373 N 
HETATM   12  C   UNL     1       2.980   1.041  -1.250  1.00  0.00     0.154 C 
HETATM   13  C   UNL     1       2.558   0.033  -0.156  1.00  0.00     0.136 C 
HETATM   14  C   UNL     1       1.106   0.219   0.280  1.00  0.00     0.041 C 
HETATM   15  O   UNL     1       2.864  -1.337  -0.467  1.00  0.00    -0.373 OA
HETATM   16  C   UNL     1       2.543  -1.776  -1.805  1.00  0.00     0.070 C 
HETATM   17  C   UNL     1       3.083  -0.775  -2.857  1.00  0.00     0.160 C 
HETATM   18  C   UNL     1       1.039  -2.048  -1.939  1.00  0.00     0.047 C 
HETATM   19  C   UNL     1       3.270  -3.119  -1.987  1.00  0.00     0.047 C 
ENDBRANCH   1  11
TORSDOF 1
