REMARK  6 active torsions:
REMARK  status: ('A' for Active; 'I' for Inactive)
REMARK    1  A    between atoms: O_1  and  C_2 
REMARK    2  A    between atoms: C_2  and  C_3 
REMARK    3  A    between atoms: N_12  and  C_13 
REMARK    4  A    between atoms: C_13  and  C_14 
REMARK    5  A    between atoms: C_14  and  O_15 
REMARK    6  A    between atoms: C_14  and  C_16 
ROOT
HETATM    1  C   UNL     1       2.969   1.408   0.362  1.00  0.00     0.108 A 
HETATM    2  N   UNL     1       2.363   2.497  -0.077  1.00  0.00    -0.342 N 
ATOM      3  HN  UNL     1       1.561   2.544  -0.705  1.00  0.00     0.167 HD
HETATM    4  C   UNL     1       3.035   3.552   0.486  1.00  0.00     0.060 A 
HETATM    5  C   UNL     1       2.778   4.927   0.370  1.00  0.00     0.032 A 
HETATM    6  C   UNL     1       3.595   5.830   1.062  1.00  0.00     0.002 A 
HETATM    7  C   UNL     1       4.649   5.370   1.850  1.00  0.00     0.002 A 
HETATM    8  C   UNL     1       4.917   4.000   1.979  1.00  0.00     0.032 A 
HETATM    9  C   UNL     1       4.086   3.109   1.281  1.00  0.00     0.062 A 
HETATM   10  N   UNL     1       4.027   1.733   1.186  1.00  0.00    -0.330 N 
ENDROOT
BRANCH  10  11
HETATM   11  C   UNL     1       4.835   0.794   1.957  1.00  0.00     0.167 C 
BRANCH  11  12
HETATM   12  C   UNL     1       6.119   0.328   1.240  1.00  0.00     0.171 C 
BRANCH  12  13
HETATM   13  O   UNL     1       7.080   1.375   1.079  1.00  0.00    -0.389 OA
HETATM   14  H   UNL     1       7.122   1.879   1.908  1.00  0.00     0.210 HD
ENDBRANCH  12  13
BRANCH  12  15
HETATM   15  C   UNL     1       6.823  -0.843   1.915  1.00  0.00    -0.005 A 
HETATM   16  C   UNL     1       6.946  -2.051   1.195  1.00  0.00     0.035 A 
HETATM   17  C   UNL     1       7.634  -3.146   1.729  1.00  0.00     0.034 A 
HETATM   18 CL   UNL     1       7.786  -4.593   0.812  1.00  0.00    -0.084 Cl
HETATM   19  C   UNL     1       8.206  -3.071   2.993  1.00  0.00     0.025 A 
HETATM   20  C   UNL     1       8.090  -1.890   3.727  1.00  0.00     0.026 A 
HETATM   21  C   UNL     1       7.410  -0.785   3.194  1.00  0.00     0.043 A 
HETATM   22 CL   UNL     1       7.369   0.640   4.171  1.00  0.00    -0.084 Cl
ENDBRANCH  12  15
ENDBRANCH  11  12
ENDBRANCH  10  11
BRANCH   1  23
HETATM   23  C   UNL     1       2.513   0.017   0.073  1.00  0.00     0.240 C 
BRANCH  23  24
HETATM   24  O   UNL     1       3.627  -0.746  -0.373  1.00  0.00    -0.393 OA
HETATM   25  H   UNL     1       3.262  -1.574  -0.728  1.00  0.00     0.209 HD
ENDBRANCH  23  24
ENDBRANCH   1  23
TORSDOF 6
