REMARK  6 active torsions:
REMARK  status: ('A' for Active; 'I' for Inactive)
REMARK    1  A    between atoms: O_2  and  C_3 
REMARK    2  A    between atoms: C_3  and  C_4 
REMARK    3  A    between atoms: C_4  and  N_5 
REMARK    4  A    between atoms: C_8  and  C_13 
REMARK       I    between atoms: C_13  and  N_15 
REMARK    5  A    between atoms: N_15  and  C_16 
REMARK    6  A    between atoms: C_16  and  C_18 
ROOT
HETATM    1  N   UNL     1       4.891   2.846  -0.257  1.00  0.00    -0.255 N 
HETATM    2  N   UNL     1       4.264   3.878   0.441  1.00  0.00    -0.290 N 
ATOM      3  HN  UNL     1       3.508   3.698   1.102  1.00  0.00     0.187 HD
HETATM    4  C   UNL     1       4.695   5.083   0.203  1.00  0.00     0.116 A 
HETATM    5  C   UNL     1       5.760   5.431  -0.753  1.00  0.00     0.042 A 
HETATM    6  C   UNL     1       6.373   4.422  -1.369  1.00  0.00     0.078 A 
HETATM    7  C   UNL     1       5.974   3.025  -1.115  1.00  0.00     0.262 A 
HETATM    8  O   UNL     1       6.608   2.127  -1.664  1.00  0.00    -0.267 OA
ENDROOT
BRANCH   4   9
HETATM    9  C   UNL     1       4.073   6.266   0.947  1.00  0.00     0.269 C 
HETATM   10  O   UNL     1       4.735   7.280   1.116  1.00  0.00    -0.266 OA
HETATM   11  N   UNL     1       2.774   6.085   1.357  1.00  0.00    -0.351 N 
HETATM   12  H   UNL     1       2.358   5.173   1.205  1.00  0.00     0.163 HD
BRANCH  11  13
HETATM   13  C   UNL     1       2.051   7.099   2.102  1.00  0.00     0.084 C 
HETATM   14  C   UNL     1       0.813   7.537   1.322  1.00  0.00     0.032 C 
BRANCH  13  15
HETATM   15  C   UNL     1       1.676   6.623   3.486  1.00  0.00     0.008 A 
HETATM   16  C   UNL     1       2.761   6.285   4.483  1.00  0.00     0.007 A 
HETATM   17  C   UNL     1       1.846   5.204   3.982  1.00  0.00     0.007 A 
ENDBRANCH  13  15
ENDBRANCH  11  13
ENDBRANCH   4   9
BRANCH   1  18
HETATM   18  C   UNL     1       4.371   1.495  -0.043  1.00  0.00     0.178 C 
BRANCH  18  19
HETATM   19  C   UNL     1       2.903   1.359  -0.450  1.00  0.00     0.189 C 
BRANCH  19  20
HETATM   20  O   UNL     1       2.750   1.628  -1.847  1.00  0.00    -0.394 OA
HETATM   21  C   UNL     1       1.389   1.561  -2.248  1.00  0.00     0.201 C 
ENDBRANCH  19  20
ENDBRANCH  18  19
ENDBRANCH   1  18
TORSDOF 6
