REMARK  5 active torsions:
REMARK  status: ('A' for Active; 'I' for Inactive)
REMARK    1  A    between atoms: N_6  and  C_7 
REMARK    2  A    between atoms: C_7  and  C_8 
REMARK    3  A    between atoms: C_8  and  N_9 
REMARK       I    between atoms: N_9  and  C_10 
REMARK    4  A    between atoms: C_10  and  C_12 
REMARK    5  A    between atoms: C_12  and  C_13 
ROOT
HETATM    1  N   UNL     1       2.965  -5.007  -3.776  1.00  0.00    -0.359 N 
HETATM    2  C   UNL     1       2.524  -6.067  -3.007  1.00  0.00     0.222 C 
HETATM    3  O   UNL     1       1.872  -5.918  -1.979  1.00  0.00    -0.273 OA
HETATM    4  H   UNL     1       3.247  -5.217  -4.727  1.00  0.00     0.162 HD
ENDROOT
BRANCH   2   5
HETATM    5  C   UNL     1       2.968  -7.435  -3.491  1.00  0.00     0.145 C 
BRANCH   5   6
HETATM    6  C   UNL     1       2.012  -8.088  -4.438  1.00  0.00    -0.002 A 
HETATM    7  C   UNL     1       0.665  -8.490  -4.201  1.00  0.00     0.030 A 
HETATM    8  C   UNL     1      -0.181  -8.343  -2.988  1.00  0.00     0.070 C 
HETATM    9  N   UNL     1       0.147  -9.124  -5.258  1.00  0.00    -0.303 N 
HETATM   10  N   UNL     1       1.137  -9.150  -6.158  1.00  0.00    -0.300 N 
ATOM     11  HN  UNL     1      -0.794  -9.504  -5.357  1.00  0.00     0.186 HD
HETATM   12  C   UNL     1       0.916  -9.839  -7.408  1.00  0.00     0.177 C 
HETATM   13  C   UNL     1       2.276  -8.516  -5.734  1.00  0.00     0.033 A 
HETATM   14  C   UNL     1       3.507  -8.400  -6.557  1.00  0.00     0.070 C 
ENDBRANCH   5   6
ENDBRANCH   2   5
BRANCH   1  15
HETATM   15  C   UNL     1       2.551  -3.635  -3.493  1.00  0.00     0.152 C 
BRANCH  15  16
HETATM   16  C   UNL     1       3.063  -3.086  -2.140  1.00  0.00     0.292 C 
BRANCH  16  17
HETATM   17  N   UNL     1       2.632  -1.703  -1.830  1.00  0.00     0.090 N 
HETATM   18  C   UNL     1       3.182  -0.721  -2.774  1.00  0.00     0.272 C 
HETATM   19  C   UNL     1       2.736   0.706  -2.443  1.00  0.00     0.031 C 
HETATM   20  C   UNL     1       3.068   1.080  -1.003  1.00  0.00     0.007 C 
HETATM   21  C   UNL     1       2.544   0.031  -0.017  1.00  0.00     0.010 C 
HETATM   22  C   UNL     1       1.019   0.097   0.124  1.00  0.00     0.011 C 
HETATM   23  C   UNL     1       3.016  -1.370  -0.443  1.00  0.00     0.276 C 
ENDBRANCH  16  17
ENDBRANCH  15  16
ENDBRANCH   1  15
TORSDOF 5
