REMARK  3 active torsions:
REMARK  status: ('A' for Active; 'I' for Inactive)
REMARK    1  A    between atoms: O_3  and  C_4 
REMARK    2  A    between atoms: C_4  and  C_6 
REMARK    3  A    between atoms: C_12  and  N_13 
ROOT
HETATM    1  C   UNL     2       3.061  -0.743   1.234  1.00  0.00     0.081 A 
HETATM    2  C   UNL     2       3.820  -0.135   2.255  1.00  0.00     0.023 A 
HETATM    3  C   UNL     2       4.291  -0.870   3.337  1.00  0.00     0.018 A 
HETATM    4  C   UNL     2       4.005  -2.225   3.411  1.00  0.00     0.090 A 
HETATM    5  N   UNL     2       3.286  -2.819   2.424  1.00  0.00    -0.352 N 
ATOM      6  HN  UNL     2       3.090  -3.817   2.503  1.00  0.00     0.166 HD
HETATM    7  C   UNL     2       2.811  -2.152   1.330  1.00  0.00     0.120 A 
ENDROOT
BRANCH   7   8
HETATM    8  N   UNL     2       2.105  -2.925   0.333  1.00  0.00    -0.362 N 
HETATM    9  C   UNL     2       1.382  -4.132   0.697  1.00  0.00     0.150 C 
HETATM   10  C   UNL     2       1.912  -5.304  -0.138  1.00  0.00     0.187 C 
HETATM   11  O   UNL     2       1.805  -5.013  -1.521  1.00  0.00    -0.388 OA
HETATM   12  C   UNL     2       2.632  -3.907  -1.836  1.00  0.00     0.187 C 
HETATM   13  C   UNL     2       2.154  -2.649  -1.100  1.00  0.00     0.150 C 
ENDBRANCH   7   8
BRANCH   1  14
HETATM   14  C   UNL     2       2.490   0.149   0.181  1.00  0.00     0.179 C 
HETATM   15  O   UNL     2       1.443  -0.150  -0.367  1.00  0.00    -0.646 OA
BRANCH  14  16
HETATM   16  O   UNL     2       3.052   1.339  -0.134  1.00  0.00    -0.773 OA
HETATM   17  H   UNL     2       3.909   1.632   0.201  1.00  0.00     0.167 HD
ENDBRANCH  14  16
ENDBRANCH   1  14
TORSDOF 3
