REMARK  6 active torsions:
REMARK  status: ('A' for Active; 'I' for Inactive)
REMARK    1  A    between atoms: O_1  and  C_2 
REMARK    2  A    between atoms: C_2  and  C_4 
REMARK    3  A    between atoms: C_4  and  N_5 
REMARK       I    between atoms: N_5  and  C_6 
REMARK    4  A    between atoms: C_6  and  C_8 
REMARK    5  A    between atoms: C_8  and  N_9 
REMARK    6  A    between atoms: C_11  and  C_17 
ROOT
HETATM    1  N   UNL     1       7.892  -2.326  -2.054  1.00  0.00    -0.314 N 
HETATM    2  C   UNL     1       8.340  -1.896  -3.293  1.00  0.00     0.111 A 
HETATM    3  C   UNL     1       9.158  -2.648  -4.052  1.00  0.00     0.065 A 
HETATM    4  C   UNL     1       9.581  -3.945  -3.547  1.00  0.00     0.047 A 
HETATM    5  C   UNL     1       9.144  -4.409  -2.369  1.00  0.00     0.102 A 
HETATM    6 CL   UNL     1       9.666  -5.926  -1.756  1.00  0.00    -0.078 Cl
HETATM    7  C   UNL     1       8.188  -3.594  -1.547  1.00  0.00     0.269 A 
HETATM    8  O   UNL     1       7.684  -4.016  -0.508  1.00  0.00    -0.266 OA
ENDROOT
BRANCH   1   9
HETATM    9  C   UNL     1       7.067  -1.435  -1.238  1.00  0.00     0.234 C 
BRANCH   9  10
HETATM   10  C   UNL     1       5.590  -1.640  -1.557  1.00  0.00     0.236 C 
HETATM   11  N   UNL     1       4.948  -2.579  -0.775  1.00  0.00    -0.350 N 
HETATM   12  H   UNL     1       5.457  -3.040  -0.022  1.00  0.00     0.163 HD
HETATM   13  O   UNL     1       5.046  -1.098  -2.515  1.00  0.00    -0.272 OA
BRANCH  11  14
HETATM   14  C   UNL     1       3.518  -2.846  -0.934  1.00  0.00     0.232 C 
BRANCH  14  15
HETATM   15  C   UNL     1       3.233  -3.982  -1.913  1.00  0.00     0.158 C 
HETATM   16  O   UNL     1       2.110  -4.371  -2.198  1.00  0.00    -0.649 OA
BRANCH  15  17
HETATM   17  O   UNL     1       4.352  -4.562  -2.413  1.00  0.00    -0.775 OA
HETATM   18  H   UNL     1       5.142  -4.096  -2.070  1.00  0.00     0.167 HD
ENDBRANCH  15  17
ENDBRANCH  14  15
ENDBRANCH  11  14
ENDBRANCH   9  10
ENDBRANCH   1   9
BRANCH   3  19
HETATM   19  C   UNL     1       9.671  -2.163  -5.381  1.00  0.00     0.418 C 
HETATM   20  F   UNL     1      10.586  -3.001  -5.933  1.00  0.00    -0.166 F 
HETATM   21  F   UNL     1       8.672  -2.021  -6.287  1.00  0.00    -0.166 F 
HETATM   22  F   UNL     1      10.272  -0.952  -5.263  1.00  0.00    -0.166 F 
ENDBRANCH   3  19
TORSDOF 6
