REMARK  4 active torsions:
REMARK  status: ('A' for Active; 'I' for Inactive)
REMARK    1  A    between atoms: C_2  and  C_3 
REMARK    2  A    between atoms: C_3  and  N_5 
REMARK       I    between atoms: N_5  and  C_6 
REMARK       I    between atoms: C_6  and  N_8 
REMARK    3  A    between atoms: N_8  and  C_9 
REMARK    4  A    between atoms: C_15  and  N_16 
ROOT
HETATM    1  C   UNL     1       7.247  -3.689  -1.069  1.00  0.00     0.060 A 
HETATM    2  C   UNL     1       8.578  -3.611  -1.515  1.00  0.00     0.029 A 
HETATM    3  C   UNL     1       9.301  -4.767  -1.751  1.00  0.00     0.019 A 
HETATM    4  C   UNL     1       8.685  -5.966  -1.488  1.00  0.00     0.090 A 
HETATM    5  N   UNL     1       7.426  -6.074  -1.013  1.00  0.00    -0.351 N 
ATOM      6  HN  UNL     1       7.036  -6.994  -0.810  1.00  0.00     0.166 HD
HETATM    7  C   UNL     1       6.676  -4.956  -0.805  1.00  0.00     0.125 A 
ENDROOT
BRANCH   1   8
HETATM    8  N   UNL     1       6.579  -2.448  -0.860  1.00  0.00    -0.207 NA
HETATM    9  C   UNL     1       5.850  -1.908  -1.913  1.00  0.00     0.299 C 
HETATM   10  N   UNL     1       5.350  -0.667  -1.560  1.00  0.00    -0.343 N 
HETATM   11  O   UNL     1       5.684  -2.419  -3.011  1.00  0.00    -0.254 OA
HETATM   12  H   UNL     1       5.185  -0.547  -0.571  1.00  0.00     0.164 HD
HETATM   13  H   UNL     1       7.197  -1.722  -0.523  1.00  0.00     0.138 HD
BRANCH  10  14
HETATM   14  C   UNL     1       4.490   0.083  -2.472  1.00  0.00     0.081 C 
HETATM   15  C   UNL     1       4.687   1.585  -2.277  1.00  0.00     0.032 C 
BRANCH  14  16
HETATM   16  C   UNL     1       3.014  -0.340  -2.348  1.00  0.00     0.020 C 
HETATM   17  C   UNL     1       2.346   0.033  -1.030  1.00  0.00     0.007 C 
ENDBRANCH  14  16
ENDBRANCH  10  14
ENDBRANCH   1   8
BRANCH   7  18
HETATM   18  N   UNL     1       5.415  -5.185  -0.321  1.00  0.00    -0.366 N 
HETATM   19  C   UNL     1       4.387  -4.219   0.002  1.00  0.00     0.124 C 
HETATM   20  C   UNL     1       3.119  -5.053   0.216  1.00  0.00     0.021 C 
HETATM   21  C   UNL     1       3.523  -6.500  -0.032  1.00  0.00     0.021 C 
HETATM   22  C   UNL     1       5.033  -6.513   0.140  1.00  0.00     0.124 C 
ENDBRANCH   7  18
TORSDOF 4
