REMARK  4 active torsions:
REMARK  status: ('A' for Active; 'I' for Inactive)
REMARK    1  A    between atoms: C_2  and  C_3 
REMARK    2  A    between atoms: C_2  and  N_12 
REMARK       I    between atoms: C_3  and  N_5 
REMARK    3  A    between atoms: N_5  and  C_6 
REMARK    4  A    between atoms: C_6  and  C_7 
ROOT
HETATM    1  C   UNL     1       3.050   0.345  -1.536  1.00  0.00     0.242 C 
HETATM    2  O   UNL     1       3.696   1.361  -1.797  1.00  0.00    -0.271 OA
HETATM    3  N   UNL     1       2.678  -0.551  -2.522  1.00  0.00    -0.357 N 
HETATM    4  H   UNL     1       2.431  -1.499  -2.243  1.00  0.00     0.162 HD
ENDROOT
BRANCH   1   5
HETATM    5  C   UNL     1       2.524   0.044  -0.137  1.00  0.00     0.195 C 
HETATM    6  C   UNL     1       2.951   1.105   0.875  1.00  0.00     0.044 C 
BRANCH   5   7
HETATM    7  N   UNL     1       2.913  -1.288   0.311  1.00  0.00    -0.290 N 
HETATM    8  C   UNL     1       4.178  -1.766   0.520  1.00  0.00     0.112 A 
HETATM    9  C   UNL     1       4.030  -3.040   1.015  1.00  0.00     0.037 A 
HETATM   10  C   UNL     1       2.641  -3.248   1.053  1.00  0.00     0.108 A 
HETATM   11  N   UNL     1       1.955  -2.194   0.606  1.00  0.00    -0.309 N 
ATOM     12  HN  UNL     1       0.944  -2.096   0.510  1.00  0.00     0.186 HD
ENDBRANCH   5   7
ENDBRANCH   1   5
BRANCH   3  13
HETATM   13  C   UNL     1       3.149  -0.369  -3.885  1.00  0.00     0.154 C 
BRANCH  13  14
HETATM   14  C   UNL     1       2.644  -1.437  -4.854  1.00  0.00     0.139 C 
HETATM   15  C   UNL     1       1.131  -1.539  -4.998  1.00  0.00     0.035 C 
HETATM   16  C   UNL     1       0.861  -3.026  -5.130  1.00  0.00     0.029 C 
HETATM   17  C   UNL     1       2.230  -3.671  -5.114  1.00  0.00     0.168 C 
HETATM   18  O   UNL     1       3.080  -2.742  -4.435  1.00  0.00    -0.384 OA
ENDBRANCH  13  14
ENDBRANCH   3  13
TORSDOF 4
