REMARK  6 active torsions:
REMARK  status: ('A' for Active; 'I' for Inactive)
REMARK    1  A    between atoms: C_6  and  C_7 
REMARK    2  A    between atoms: C_10  and  N_11 
REMARK       I    between atoms: N_11  and  C_12 
REMARK       I    between atoms: C_12  and  N_14 
REMARK    3  A    between atoms: N_14  and  C_15 
REMARK    4  A    between atoms: C_15  and  C_17 
REMARK    5  A    between atoms: C_15  and  C_19 
REMARK    6  A    between atoms: C_17  and  O_18 
ROOT
HETATM    1  N   UNL     1       3.247   2.546  -0.064  1.00  0.00    -0.305 N 
HETATM    2  C   UNL     1       2.048   3.111  -0.437  1.00  0.00     0.321 C 
HETATM    3  O   UNL     1       1.227   2.590  -1.183  1.00  0.00    -0.247 OA
HETATM    4  N   UNL     1       1.830   4.344   0.138  1.00  0.00    -0.332 N 
HETATM    5  H   UNL     1       4.031   3.177   0.029  1.00  0.00     0.171 HD
HETATM    6  H   UNL     1       2.626   4.871   0.470  1.00  0.00     0.165 HD
ENDROOT
BRANCH   1   7
HETATM    7  C   UNL     1       3.550   1.200  -0.289  1.00  0.00     0.093 A 
HETATM    8  C   UNL     1       4.833   0.640  -0.592  1.00  0.00     0.058 A 
HETATM    9  C   UNL     1       6.130   1.315  -0.810  1.00  0.00     0.072 C 
HETATM   10  N   UNL     1       4.761  -0.683  -0.781  1.00  0.00    -0.263 N 
HETATM   11  O   UNL     1       3.432  -1.010  -0.642  1.00  0.00    -0.239 OA
ATOM     12  HN  UNL     1       5.533  -1.318  -0.986  1.00  0.00     0.194 HD
HETATM   13  C   UNL     1       2.712   0.098  -0.313  1.00  0.00     0.109 A 
BRANCH  13  14
HETATM   14  C   UNL     1       1.219   0.039  -0.030  1.00  0.00     0.047 A 
HETATM   15  C   UNL     1       0.498  -1.288   0.027  1.00  0.00     0.012 A 
HETATM   16  C   UNL     1       0.358  -0.428  -1.186  1.00  0.00     0.012 A 
ENDBRANCH  13  14
ENDBRANCH   1   7
BRANCH   4  17
HETATM   17  C   UNL     1       0.589   5.128  -0.071  1.00  0.00     0.055 C 
HETATM   18  C   UNL     1      -0.655   4.328   0.358  1.00  0.00     0.041 C 
BRANCH  17  19
HETATM   19  C   UNL     1       0.659   6.373   0.861  1.00  0.00     0.195 C 
BRANCH  19  20
HETATM   20  O   UNL     1       1.874   7.102   0.661  1.00  0.00    -0.398 OA
HETATM   21  H   UNL     1       1.874   7.394  -0.268  1.00  0.00     0.209 HD
ENDBRANCH  19  20
ENDBRANCH  17  19
BRANCH  17  22
HETATM   22  C   UNL     1       0.569   5.578  -1.537  1.00  0.00     0.015 A 
HETATM   23  C   UNL     1      -0.510   6.461  -2.130  1.00  0.00     0.007 A 
HETATM   24  C   UNL     1      -0.407   5.025  -2.554  1.00  0.00     0.007 A 
ENDBRANCH  17  22
ENDBRANCH   4  17
TORSDOF 6
