REMARK  4 active torsions:
REMARK  status: ('A' for Active; 'I' for Inactive)
REMARK    1  A    between atoms: C_2  and  O_3 
REMARK    2  A    between atoms: O_3  and  C_4 
REMARK    3  A    between atoms: N_8  and  C_10 
REMARK    4  A    between atoms: C_16  and  N_17 
ROOT
HETATM    1  C   UNL     1       3.974  -0.296  -2.513  1.00  0.00     0.107 A 
HETATM    2  C   UNL     1       3.682  -1.647  -2.444  1.00  0.00     0.073 A 
HETATM    3  C   UNL     1       3.026  -2.239  -3.505  1.00  0.00     0.011 A 
HETATM    4  C   UNL     1       2.668  -3.693  -3.465  1.00  0.00     0.068 C 
HETATM    5  N   UNL     1       2.659  -1.549  -4.595  1.00  0.00    -0.337 N 
ATOM      6  HN  UNL     1       2.155  -1.985  -5.367  1.00  0.00     0.168 HD
HETATM    7  C   UNL     1       2.993  -0.259  -4.607  1.00  0.00     0.156 A 
HETATM    8  N   UNL     1       3.615   0.388  -3.616  1.00  0.00    -0.319 N 
ATOM      9  HN  UNL     1       3.815   1.385  -3.694  1.00  0.00     0.170 HD
ENDROOT
BRANCH   1  10
HETATM   10  N   UNL     1       4.627   0.371  -1.493  1.00  0.00    -0.365 N 
HETATM   11  C   UNL     1       4.984   1.784  -1.656  1.00  0.00     0.124 C 
HETATM   12  C   UNL     1       4.383   2.615  -0.518  1.00  0.00     0.022 C 
HETATM   13  C   UNL     1       4.725   2.041   0.860  1.00  0.00     0.035 C 
HETATM   14  C   UNL     1       4.343   0.559   0.964  1.00  0.00     0.139 C 
HETATM   15  C   UNL     1       4.998  -0.216  -0.203  1.00  0.00     0.156 C 
BRANCH  14  16
HETATM   16  O   UNL     1       2.907   0.471   0.996  1.00  0.00    -0.385 OA
BRANCH  16  17
HETATM   17  C   UNL     1       2.409  -0.848   1.198  1.00  0.00     0.163 C 
HETATM   18  C   UNL     1       0.915  -0.788   1.446  1.00  0.00     0.033 C 
ENDBRANCH  16  17
ENDBRANCH  14  16
ENDBRANCH   1  10
BRANCH   7  19
HETATM   19  N   UNL     1       2.609   0.473  -5.715  1.00  0.00    -0.274 NA
HETATM   20  H   UNL     1       1.818   0.017  -6.148  1.00  0.00     0.127 HD
HETATM   21  H   UNL     1       2.493   1.439  -5.440  1.00  0.00     0.127 HD
ENDBRANCH   7  19
TORSDOF 4
