REMARK  5 active torsions:
REMARK  status: ('A' for Active; 'I' for Inactive)
REMARK    1  A    between atoms: O_2  and  C_3 
REMARK    2  A    between atoms: C_6  and  N_7 
REMARK    3  A    between atoms: N_7  and  C_8 
REMARK    4  A    between atoms: C_8  and  C_10 
REMARK    5  A    between atoms: C_10  and  C_11 
ROOT
HETATM    1  N   UNL     1       3.890  -3.516  -1.916  1.00  0.00     0.093 N 
HETATM    2  H   UNL     1       3.704  -2.879  -2.683  1.00  0.00     0.316 HD
ENDROOT
BRANCH   1   3
HETATM    3  C   UNL     1       3.688  -2.991  -0.562  1.00  0.00     0.234 C 
HETATM    4  C   UNL     1       2.259  -2.390  -0.525  1.00  0.00     0.075 C 
HETATM    5  C   UNL     1       2.836  -0.957  -0.746  1.00  0.00     0.067 C 
HETATM    6  C   UNL     1       2.715  -0.421  -2.178  1.00  0.00     0.047 C 
HETATM    7  C   UNL     1       4.255  -1.551  -0.320  1.00  0.00     0.014 C 
HETATM    8  C   UNL     1       5.465  -1.035  -1.097  1.00  0.00     0.020 C 
HETATM    9  C   UNL     1       4.550  -1.389   1.191  1.00  0.00     0.020 C 
BRANCH   5  10
HETATM   10  O   UNL     1       2.344   0.068   0.170  1.00  0.00    -0.384 OA
HETATM   11  C   UNL     1       0.965   0.411   0.113  1.00  0.00     0.202 C 
ENDBRANCH   5  10
ENDBRANCH   1   3
BRANCH   1  12
HETATM   12  C   UNL     1       5.180  -4.191  -2.144  1.00  0.00     0.222 C 
HETATM   13  C   UNL     1       5.386  -5.431  -1.271  1.00  0.00     0.043 C 
BRANCH  12  14
HETATM   14  C   UNL     1       5.345  -4.531  -3.651  1.00  0.00     0.093 C 
BRANCH  14  15
HETATM   15  C   UNL     1       4.330  -5.480  -4.204  1.00  0.00     0.029 A 
HETATM   16  C   UNL     1       3.059  -5.180  -4.753  1.00  0.00     0.052 A 
HETATM   17  C   UNL     1       2.531  -6.393  -5.135  1.00  0.00     0.024 A 
HETATM   18  C   UNL     1       1.244  -6.763  -5.762  1.00  0.00     0.070 C 
HETATM   19  N   UNL     1       3.477  -7.321  -4.801  1.00  0.00    -0.305 N 
HETATM   20  N   UNL     1       4.587  -6.795  -4.266  1.00  0.00    -0.305 N 
HETATM   21  H   UNL     1       3.432  -8.329  -4.914  1.00  0.00     0.186 HD
ATOM     22  HN  UNL     1       5.434  -7.283  -3.973  1.00  0.00     0.186 HD
ENDBRANCH  14  15
ENDBRANCH  12  14
ENDBRANCH   1  12
TORSDOF 5
