REMARK  6 active torsions:
REMARK  status: ('A' for Active; 'I' for Inactive)
REMARK    1  A    between atoms: N_1  and  C_2 
REMARK    2  A    between atoms: C_5  and  S_6 
REMARK    3  A    between atoms: S_6  and  C_7 
REMARK    4  A    between atoms: C_7  and  C_8 
REMARK    5  A    between atoms: C_8  and  O_9 
REMARK    6  A    between atoms: O_9  and  C_10 
ROOT
HETATM    1  C   UNL     1       2.502   0.062   0.104  1.00  0.00     0.102 A 
HETATM    2  N   UNL     1       3.176  -1.103   0.151  1.00  0.00    -0.326 N 
ATOM      3  HN  UNL     1       2.701  -2.000   0.050  1.00  0.00     0.169 HD
HETATM    4  C   UNL     1       4.499  -1.026   0.336  1.00  0.00     0.145 A 
HETATM    5  N   UNL     1       5.192   0.118   0.468  1.00  0.00    -0.345 N 
ATOM      6  HN  UNL     1       6.203   0.120   0.604  1.00  0.00     0.167 HD
HETATM    7  C   UNL     1       4.486   1.258   0.412  1.00  0.00     0.116 A 
HETATM    8  C   UNL     1       3.126   1.292   0.229  1.00  0.00     0.098 A 
HETATM    9  C   UNL     1       2.436   2.535   0.190  1.00  0.00     0.104 C 
HETATM   10  N   UNL     1       1.885   3.557   0.196  1.00  0.00    -0.191 NA
ENDROOT
BRANCH   1  11
HETATM   11  N   UNL     1       1.134  -0.047  -0.151  1.00  0.00    -0.287 NA
HETATM   12  H   UNL     1       0.873  -1.030  -0.153  1.00  0.00     0.125 HD
HETATM   13  H   UNL     1       0.546   0.506   0.465  1.00  0.00     0.125 HD
ENDBRANCH   1  11
BRANCH   4  14
HETATM   14  S   UNL     1       5.496  -2.483   0.439  1.00  0.00    -0.092 SA
BRANCH  14  15
HETATM   15  C   UNL     1       4.310  -3.853   0.172  1.00  0.00     0.108 C 
BRANCH  15  16
HETATM   16  C   UNL     1       5.176  -5.115   0.148  1.00  0.00     0.178 C 
BRANCH  16  17
HETATM   17  O   UNL     1       4.451  -6.316  -0.155  1.00  0.00    -0.385 OA
BRANCH  17  18
HETATM   18  C   UNL     1       5.301  -7.489  -0.071  1.00  0.00     0.121 C 
HETATM   19  C   UNL     1       6.344  -7.503  -1.204  1.00  0.00     0.032 C 
HETATM   20  C   UNL     1       7.492  -8.463  -0.922  1.00  0.00     0.002 C 
HETATM   21  C   UNL     1       7.281  -9.862  -1.476  1.00  0.00     0.000 C 
HETATM   22  C   UNL     1       5.869 -10.429  -1.352  1.00  0.00     0.000 C 
HETATM   23  C   UNL     1       5.137 -10.083  -0.056  1.00  0.00     0.002 C 
HETATM   24  C   UNL     1       4.402  -8.736  -0.100  1.00  0.00     0.032 C 
ENDBRANCH  17  18
ENDBRANCH  16  17
ENDBRANCH  15  16
ENDBRANCH  14  15
ENDBRANCH   4  14
TORSDOF 6
