REMARK  7 active torsions:
REMARK  status: ('A' for Active; 'I' for Inactive)
REMARK    1  A    between atoms: O_2  and  C_3 
REMARK    2  A    between atoms: C_3  and  C_4 
REMARK    3  A    between atoms: C_4  and  N_5 
REMARK    4  A    between atoms: C_6  and  N_7 
REMARK    5  A    between atoms: C_8  and  N_9 
REMARK    6  A    between atoms: N_9  and  C_10 
REMARK       I    between atoms: N_9  and  C_17 
REMARK    7  A    between atoms: C_10  and  C_11 
ROOT
HETATM    1  N   UNL     1       4.775  -2.473   0.381  1.00  0.00    -0.286 N 
HETATM    2  C   UNL     1       4.077  -3.589  -0.093  1.00  0.00     0.117 C 
HETATM    3  C   UNL     1       4.540  -4.836   0.166  1.00  0.00     0.145 C 
HETATM    4  C   UNL     1       5.947  -4.944   0.646  1.00  0.00     0.279 C 
HETATM    5  O   UNL     1       6.650  -5.918   0.388  1.00  0.00    -0.265 OA
HETATM    6  N   UNL     1       6.422  -3.855   1.307  1.00  0.00    -0.273 N 
HETATM    7  C   UNL     1       5.952  -2.590   1.120  1.00  0.00     0.330 C 
HETATM    8  O   UNL     1       6.596  -1.640   1.562  1.00  0.00    -0.246 OA
HETATM    9  H   UNL     1       7.366  -3.915   1.658  1.00  0.00     0.173 HD
ENDROOT
BRANCH   3  10
HETATM   10  N   UNL     1       3.815  -6.000  -0.059  1.00  0.00    -0.306 N 
HETATM   11  C   UNL     1       3.912  -6.783  -1.198  1.00  0.00     0.220 C 
HETATM   12  O   UNL     1       3.327  -7.865  -1.307  1.00  0.00    -0.273 OA
HETATM   13  C   UNL     1       4.657  -6.243  -2.396  1.00  0.00     0.117 C 
BRANCH  10  14
HETATM   14  C   UNL     1       2.945  -6.478   1.035  1.00  0.00     0.171 C 
BRANCH  14  15
HETATM   15  C   UNL     1       3.611  -7.270   2.148  1.00  0.00    -0.040 A 
HETATM   16  C   UNL     1       3.058  -7.220   3.442  1.00  0.00     0.009 A 
HETATM   17  C   UNL     1       3.639  -7.918   4.506  1.00  0.00     0.001 A 
HETATM   18  C   UNL     1       4.771  -8.697   4.290  1.00  0.00     0.000 A 
HETATM   19  C   UNL     1       5.290  -8.814   3.003  1.00  0.00     0.001 A 
HETATM   20  C   UNL     1       4.705  -8.119   1.937  1.00  0.00     0.009 A 
ENDBRANCH  14  15
ENDBRANCH  10  14
ENDBRANCH   3  10
BRANCH   2  21
HETATM   21  N   UNL     1       2.917  -3.422  -0.841  1.00  0.00    -0.286 NA
HETATM   22  H   UNL     1       3.049  -2.704  -1.552  1.00  0.00     0.125 HD
HETATM   23  H   UNL     1       2.618  -4.289  -1.287  1.00  0.00     0.125 HD
ENDBRANCH   2  21
BRANCH   1  24
HETATM   24  C   UNL     1       4.227  -1.113   0.205  1.00  0.00     0.161 C 
BRANCH  24  25
HETATM   25  C   UNL     1       2.861  -0.881   0.868  1.00  0.00     0.187 C 
BRANCH  25  26
HETATM   26  O   UNL     1       2.455   0.477   0.666  1.00  0.00    -0.394 OA
HETATM   27  C   UNL     1       1.132   0.696   1.147  1.00  0.00     0.201 C 
ENDBRANCH  25  26
ENDBRANCH  24  25
ENDBRANCH   1  24
TORSDOF 7
