REMARK  4 active torsions:
REMARK  status: ('A' for Active; 'I' for Inactive)
REMARK    1  A    between atoms: C_2  and  C_3 
REMARK    2  A    between atoms: C_2  and  N_10 
REMARK    3  A    between atoms: C_3  and  N_4 
REMARK       I    between atoms: N_10  and  C_11 
REMARK       I    between atoms: C_11  and  N_13 
REMARK    4  A    between atoms: N_13  and  C_14 
ROOT
HETATM    1  N   UNL     1       2.804  -1.760   0.638  1.00  0.00    -0.337 N 
HETATM    2  C   UNL     1       4.145  -1.720   0.946  1.00  0.00     0.316 C 
HETATM    3  O   UNL     1       4.685  -0.825   1.574  1.00  0.00    -0.247 OA
HETATM    4  N   UNL     1       4.771  -2.826   0.418  1.00  0.00    -0.338 N 
HETATM    5  H   UNL     1       2.638  -2.271  -0.218  1.00  0.00     0.164 HD
HETATM    6  H   UNL     1       4.163  -3.630   0.392  1.00  0.00     0.164 HD
ENDROOT
BRANCH   1   7
HETATM    7  C   UNL     1       1.881  -0.633   0.876  1.00  0.00     0.102 C 
HETATM    8  C   UNL     1       0.526  -1.021   0.270  1.00  0.00     0.034 C 
BRANCH   7   9
HETATM    9  C   UNL     1       1.764  -0.249   2.366  1.00  0.00     0.172 C 
BRANCH   9  10
HETATM   10  N   UNL     1       0.831   0.834   2.638  1.00  0.00    -0.302 N 
HETATM   11  C   UNL     1       1.126   2.161   2.777  1.00  0.00     0.111 A 
HETATM   12  C   UNL     1      -0.053   2.783   3.124  1.00  0.00     0.037 A 
HETATM   13  C   UNL     1      -1.003   1.747   3.170  1.00  0.00     0.108 A 
HETATM   14  N   UNL     1      -0.468   0.556   2.879  1.00  0.00    -0.310 N 
ATOM     15  HN  UNL     1      -0.933  -0.351   2.847  1.00  0.00     0.186 HD
ENDBRANCH   9  10
ENDBRANCH   7   9
ENDBRANCH   1   7
BRANCH   4  16
HETATM   16  C   UNL     1       6.204  -3.110   0.560  1.00  0.00     0.089 C 
HETATM   17  C   UNL     1       7.085  -1.998  -0.039  1.00  0.00     0.026 C 
HETATM   18  C   UNL     1       6.909  -1.871  -1.553  1.00  0.00     0.002 C 
HETATM   19  C   UNL     1       7.120  -3.198  -2.279  1.00  0.00     0.001 C 
HETATM   20  C   UNL     1       6.331  -4.348  -1.656  1.00  0.00     0.006 C 
HETATM   21  C   UNL     1       6.589  -4.441  -0.143  1.00  0.00     0.004 C 
HETATM   22  C   UNL     1       5.915  -5.672   0.463  1.00  0.00     0.012 C 
ENDBRANCH   4  16
TORSDOF 4
