REMARK  5 active torsions:
REMARK  status: ('A' for Active; 'I' for Inactive)
REMARK    1  A    between atoms: C_2  and  C_3 
REMARK    2  A    between atoms: C_2  and  N_10 
REMARK    3  A    between atoms: C_3  and  N_4 
REMARK    4  A    between atoms: N_10  and  C_11 
REMARK    5  A    between atoms: C_11  and  C_13 
REMARK       I    between atoms: C_13  and  N_15 
ROOT
HETATM    1  C   UNL     1       4.504   1.165   0.795  1.00  0.00     0.308 C 
HETATM    2  C   UNL     1       5.172   1.481  -0.545  1.00  0.00     0.053 C 
ENDROOT
BRANCH   1   3
HETATM    3  N   UNL     1       3.029   1.148   0.704  1.00  0.00     0.102 N 
HETATM    4  H   UNL     1       2.639   1.041   1.640  1.00  0.00     0.317 HD
BRANCH   3   5
HETATM    5  C   UNL     1       2.453   0.176  -0.247  1.00  0.00     0.237 C 
HETATM    6  C   UNL     1       2.856  -1.267   0.099  1.00  0.00     0.044 C 
BRANCH   5   7
HETATM    7  C   UNL     1       0.909   0.233  -0.273  1.00  0.00     0.183 C 
BRANCH   7   8
HETATM    8  N   UNL     1       0.337   1.496  -0.691  1.00  0.00    -0.302 N 
HETATM    9  C   UNL     1       0.000   2.541   0.127  1.00  0.00     0.111 A 
HETATM   10  C   UNL     1      -0.714   3.421  -0.649  1.00  0.00     0.037 A 
HETATM   11  C   UNL     1      -0.761   2.822  -1.918  1.00  0.00     0.108 A 
HETATM   12  N   UNL     1      -0.130   1.643  -1.949  1.00  0.00    -0.310 N 
ATOM     13  HN  UNL     1      -0.026   1.005  -2.738  1.00  0.00     0.186 HD
ENDBRANCH   7   8
ENDBRANCH   5   7
ENDBRANCH   3   5
ENDBRANCH   1   3
BRANCH   1  14
HETATM   14  C   UNL     1       4.980   2.205   1.850  1.00  0.00     0.253 C 
HETATM   15  O   UNL     1       4.266   3.149   2.195  1.00  0.00    -0.271 OA
HETATM   16  N   UNL     1       6.262   2.041   2.370  1.00  0.00    -0.345 N 
HETATM   17  C   UNL     1       6.843   3.081   3.226  1.00  0.00     0.157 C 
HETATM   18  C   UNL     1       7.163   0.902   2.157  1.00  0.00     0.157 C 
HETATM   19  C   UNL     1       8.213   3.508   2.662  1.00  0.00     0.136 C 
HETATM   20  C   UNL     1       8.903   4.511   3.571  1.00  0.00     0.041 C 
HETATM   21  O   UNL     1       9.086   2.365   2.528  1.00  0.00    -0.378 OA
HETATM   22  C   UNL     1       8.525   1.389   1.634  1.00  0.00     0.136 C 
HETATM   23  C   UNL     1       9.501   0.228   1.515  1.00  0.00     0.041 C 
ENDBRANCH   1  14
TORSDOF 5
