REMARK  6 active torsions:
REMARK  status: ('A' for Active; 'I' for Inactive)
REMARK    1  A    between atoms: N_1  and  C_9 
REMARK    2  A    between atoms: C_6  and  N_8 
REMARK    3  A    between atoms: C_15  and  C_27 
REMARK    4  A    between atoms: C_15  and  C_28 
REMARK    5  A    between atoms: C_27  and  O_29 
REMARK    6  A    between atoms: C_28  and  O_30 
ROOT
HETATM    1  N   UNL     1       1.609   1.154  -0.023  1.00  0.00    -0.322 N 
HETATM    2  C   UNL     1       0.394  -0.656   0.038  1.00  0.00     0.122 A 
HETATM    3  C   UNL     1       0.300   0.735   0.011  1.00  0.00     0.140 A 
HETATM    4  N   UNL     1       1.713  -1.065  -0.006  1.00  0.00    -0.346 N 
ATOM      5  HN  UNL     1       2.067  -2.021  -0.004  1.00  0.00     0.167 HD
HETATM    6  C   UNL     1      -0.803  -1.415   0.106  1.00  0.00     0.135 A 
HETATM    7  C   UNL     1       2.408   0.042  -0.050  1.00  0.00     0.185 A 
HETATM    8  N   UNL     1      -0.836   1.456   0.022  1.00  0.00    -0.336 N 
ATOM      9  HN  UNL     1      -0.877   2.475   0.017  1.00  0.00     0.168 HD
HETATM   10  N   UNL     1      -1.968  -0.712   0.074  1.00  0.00    -0.337 N 
ATOM     11  HN  UNL     1      -2.866  -1.197   0.075  1.00  0.00     0.168 HD
HETATM   12  C   UNL     1      -1.917   0.641   0.041  1.00  0.00     0.183 A 
ENDROOT
BRANCH   6  13
HETATM   13  N   UNL     1      -0.798  -2.804   0.151  1.00  0.00    -0.364 N 
HETATM   14  C   UNL     1      -2.050  -3.551   0.176  1.00  0.00     0.136 C 
HETATM   15  C   UNL     1      -1.608  -5.010   0.486  1.00  0.00     0.002 C 
HETATM   16  C   UNL     1      -2.415  -5.636   1.643  1.00  0.00     0.115 C 
HETATM   17  C   UNL     1      -1.823  -5.951  -0.707  1.00  0.00     0.134 C 
HETATM   18  C   UNL     1      -0.102  -4.906   0.832  1.00  0.00     0.033 C 
HETATM   19  C   UNL     1      -3.240  -6.715   1.002  1.00  0.00     0.218 C 
HETATM   20  N   UNL     1      -2.844  -6.863  -0.301  1.00  0.00    -0.360 N 
HETATM   21  O   UNL     1      -4.099  -7.381   1.547  1.00  0.00    -0.274 OA
HETATM   22  H   UNL     1      -3.251  -7.586  -0.883  1.00  0.00     0.162 HD
HETATM   23  C   UNL     1       0.149  -3.427   1.068  1.00  0.00     0.125 C 
ENDBRANCH   6  13
BRANCH   1  24
HETATM   24  C   UNL     1       2.217   2.451   0.026  1.00  0.00     0.094 C 
HETATM   25  C   UNL     1       1.776   3.349   1.216  1.00  0.00     0.039 C 
HETATM   26  C   UNL     1       2.092   4.574   0.279  1.00  0.00     0.006 C 
HETATM   27  C   UNL     1       1.648   3.585  -0.871  1.00  0.00     0.039 C 
BRANCH  26  28
HETATM   28  C   UNL     1       1.190   5.792   0.451  1.00  0.00     0.175 C 
BRANCH  28  29
HETATM   29  O   UNL     1       1.407   6.362   1.740  1.00  0.00    -0.400 OA
HETATM   30  H   UNL     1       0.926   5.806   2.381  1.00  0.00     0.209 HD
ENDBRANCH  28  29
ENDBRANCH  26  28
BRANCH  26  31
HETATM   31  C   UNL     1       3.574   5.002   0.208  1.00  0.00     0.175 C 
BRANCH  31  32
HETATM   32  O   UNL     1       4.042   5.361   1.504  1.00  0.00    -0.400 OA
HETATM   33  H   UNL     1       3.479   6.104   1.804  1.00  0.00     0.209 HD
ENDBRANCH  31  32
ENDBRANCH  26  31
ENDBRANCH   1  24
TORSDOF 6
