REMARK  5 active torsions:
REMARK  status: ('A' for Active; 'I' for Inactive)
REMARK    1  A    between atoms: C_2  and  N_4 
REMARK    2  A    between atoms: C_6  and  C_10 
REMARK       I    between atoms: C_10  and  N_12 
REMARK    3  A    between atoms: N_12  and  C_13 
REMARK    4  A    between atoms: C_13  and  C_14 
REMARK    5  A    between atoms: C_14  and  C_15 
ROOT
HETATM    1  C   UNL     1       2.064  -4.367  -1.984  1.00  0.00     0.223 C 
HETATM    2  O   UNL     1       1.583  -4.693  -0.902  1.00  0.00    -0.273 OA
HETATM    3  N   UNL     1       1.801  -5.076  -3.137  1.00  0.00    -0.360 N 
HETATM    4  H   UNL     1       2.109  -4.716  -4.031  1.00  0.00     0.162 HD
ENDROOT
BRANCH   1   5
HETATM    5  C   UNL     1       3.050  -3.220  -2.140  1.00  0.00     0.104 C 
HETATM    6  C   UNL     1       3.187  -2.452  -0.829  1.00  0.00     0.140 C 
HETATM    7  N   UNL     1       3.010  -1.057  -1.153  1.00  0.00    -0.347 N 
HETATM    8  C   UNL     1       2.734  -0.855  -2.497  1.00  0.00     0.221 C 
HETATM    9  C   UNL     1       2.619  -2.188  -3.178  1.00  0.00     0.118 C 
HETATM   10  O   UNL     1       2.534   0.219  -3.043  1.00  0.00    -0.273 OA
BRANCH   7  11
HETATM   11  C   UNL     1       2.610  -0.061  -0.152  1.00  0.00     0.079 C 
HETATM   12  C   UNL     1       1.081   0.032  -0.098  1.00  0.00     0.032 C 
HETATM   13  C   UNL     1       3.163  -0.337   1.248  1.00  0.00     0.032 C 
ENDBRANCH   7  11
ENDBRANCH   1   5
BRANCH   3  14
HETATM   14  C   UNL     1       0.834  -6.163  -3.100  1.00  0.00     0.128 C 
BRANCH  14  15
HETATM   15  C   UNL     1       0.684  -6.873  -4.441  1.00  0.00     0.077 C 
BRANCH  15  16
HETATM   16  C   UNL     1      -0.273  -8.018  -4.366  1.00  0.00     0.018 A 
HETATM   17  C   UNL     1       0.034  -9.332  -4.071  1.00  0.00     0.076 A 
HETATM   18  S   UNL     1      -1.385 -10.293  -4.089  1.00  0.00    -0.087 SA
HETATM   19  C   UNL     1      -2.305  -8.898  -4.490  1.00  0.00     0.046 A 
HETATM   20  C   UNL     1      -3.778  -8.992  -4.684  1.00  0.00     0.076 C 
HETATM   21  N   UNL     1      -1.617  -7.780  -4.604  1.00  0.00    -0.357 N 
ATOM     22  HN  UNL     1      -2.016  -6.870  -4.834  1.00  0.00     0.166 HD
ENDBRANCH  15  16
ENDBRANCH  14  15
ENDBRANCH   3  14
TORSDOF 5
