REMARK  6 active torsions:
REMARK  status: ('A' for Active; 'I' for Inactive)
REMARK    1  A    between atoms: S_2  and  N_5 
REMARK    2  A    between atoms: N_5  and  C_6 
REMARK    3  A    between atoms: C_6  and  C_7 
REMARK    4  A    between atoms: C_7  and  C_8 
REMARK       I    between atoms: C_8  and  N_10 
REMARK    5  A    between atoms: N_10  and  C_11 
REMARK    6  A    between atoms: C_14  and  N_18 
ROOT
HETATM    1  C   UNL     1       9.043   1.666   3.912  1.00  0.00     0.050 A 
HETATM    2  C   UNL     1       9.754   2.759   4.371  1.00  0.00     0.035 A 
HETATM    3  C   UNL     1      11.145   2.789   4.253  1.00  0.00     0.051 A 
HETATM    4  C   UNL     1      11.839   1.741   3.653  1.00  0.00     0.103 A 
HETATM    5  N   UNL     1      11.154   0.667   3.199  1.00  0.00    -0.350 N 
ATOM      6  HN  UNL     1      11.642  -0.116   2.764  1.00  0.00     0.166 HD
HETATM    7  C   UNL     1       9.798   0.652   3.335  1.00  0.00     0.119 A 
ENDROOT
BRANCH   1   8
HETATM    8  N   UNL     1       7.635   1.571   3.975  1.00  0.00    -0.326 N 
HETATM    9  C   UNL     1       6.794   2.414   4.686  1.00  0.00     0.223 C 
HETATM   10  O   UNL     1       7.142   3.293   5.468  1.00  0.00    -0.273 OA
HETATM   11  H   UNL     1       7.212   0.775   3.511  1.00  0.00     0.169 HD
BRANCH   9  12
HETATM   12  C   UNL     1       5.332   2.229   4.357  1.00  0.00     0.118 C 
BRANCH  12  13
HETATM   13  C   UNL     1       4.885   3.304   3.374  1.00  0.00     0.113 C 
BRANCH  13  14
HETATM   14  N   UNL     1       5.551   3.130   2.045  1.00  0.00    -0.220 NA
HETATM   15  H   UNL     1       6.558   3.292   2.137  1.00  0.00     0.139 HD
BRANCH  14  16
HETATM   16  S   UNL     1       4.944   4.215   0.875  1.00  0.00     0.205 S 
HETATM   17  C   UNL     1       5.931   3.786  -0.544  1.00  0.00     0.179 C 
HETATM   18  O   UNL     1       5.331   5.538   1.313  1.00  0.00    -0.212 OA
HETATM   19  O   UNL     1       3.568   3.861   0.621  1.00  0.00    -0.212 OA
ENDBRANCH  14  16
ENDBRANCH  13  14
ENDBRANCH  12  13
ENDBRANCH   9  12
ENDBRANCH   1   8
BRANCH   4  20
HETATM   20  N   UNL     1      13.216   1.764   3.566  1.00  0.00    -0.363 N 
HETATM   21  C   UNL     1      13.965   3.012   3.363  1.00  0.00     0.150 C 
HETATM   22  C   UNL     1      14.612   3.034   1.969  1.00  0.00     0.187 C 
HETATM   23  O   UNL     1      15.416   1.870   1.734  1.00  0.00    -0.388 OA
HETATM   24  C   UNL     1      14.602   0.686   1.821  1.00  0.00     0.187 C 
HETATM   25  C   UNL     1      13.957   0.546   3.207  1.00  0.00     0.150 C 
ENDBRANCH   4  20
TORSDOF 6
