REMARK  4 active torsions:
REMARK  status: ('A' for Active; 'I' for Inactive)
REMARK    1  A    between atoms: O_2  and  C_3 
REMARK    2  A    between atoms: C_9  and  N_10 
REMARK       I    between atoms: N_10  and  C_11 
REMARK       I    between atoms: C_11  and  N_13 
REMARK    3  A    between atoms: N_13  and  C_14 
REMARK    4  A    between atoms: C_14  and  C_15 
ROOT
HETATM    1  N   UNL     1       3.389  -2.094  -1.319  1.00  0.00    -0.305 N 
HETATM    2  C   UNL     1       2.761  -2.594  -0.197  1.00  0.00     0.320 C 
HETATM    3  O   UNL     1       2.301  -1.912   0.714  1.00  0.00    -0.247 OA
HETATM    4  N   UNL     1       2.644  -3.972  -0.162  1.00  0.00    -0.342 N 
HETATM    5  H   UNL     1       3.956  -2.706  -1.881  1.00  0.00     0.171 HD
HETATM    6  H   UNL     1       3.396  -4.508  -0.561  1.00  0.00     0.164 HD
ENDROOT
BRANCH   1   7
HETATM    7  C   UNL     1       3.511  -0.692  -1.590  1.00  0.00     0.087 A 
HETATM    8  C   UNL     1       4.473  -0.201  -2.481  1.00  0.00     0.169 A 
HETATM    9  N   UNL     1       4.678   1.121  -2.723  1.00  0.00    -0.345 N 
HETATM   10  C   UNL     1       3.899   2.000  -2.064  1.00  0.00     0.090 A 
ATOM     11  HN  UNL     1       5.394   1.435  -3.378  1.00  0.00     0.167 HD
HETATM   12  C   UNL     1       2.896   1.622  -1.197  1.00  0.00     0.019 A 
HETATM   13  C   UNL     1       2.694   0.263  -0.975  1.00  0.00     0.035 A 
BRANCH   8  14
HETATM   14  O   UNL     1       5.277  -1.113  -3.148  1.00  0.00    -0.339 OA
HETATM   15  C   UNL     1       6.395  -0.477  -3.777  1.00  0.00     0.211 C 
ENDBRANCH   8  14
ENDBRANCH   1   7
BRANCH   4  16
HETATM   16  C   UNL     1       1.982  -4.497   1.020  1.00  0.00     0.129 C 
BRANCH  16  17
HETATM   17  C   UNL     1       1.707  -5.963   1.051  1.00  0.00     0.003 A 
HETATM   18  C   UNL     1       2.826  -6.972   1.148  1.00  0.00     0.007 A 
HETATM   19  C   UNL     1       1.961  -6.922  -0.083  1.00  0.00     0.007 A 
ENDBRANCH  16  17
ENDBRANCH   4  16
TORSDOF 4
