REMARK  3 active torsions:
REMARK  status: ('A' for Active; 'I' for Inactive)
REMARK    1  A    between atoms: C_2  and  N_4 
REMARK       I    between atoms: N_4  and  C_5 
REMARK    2  A    between atoms: C_5  and  C_7 
REMARK    3  A    between atoms: C_10  and  N_14 
ROOT
HETATM    1  C   UNL     1       4.843  -2.082  -2.448  1.00  0.00     0.047 A 
HETATM    2  C   UNL     1       5.245  -1.595  -3.687  1.00  0.00     0.022 A 
HETATM    3  C   UNL     1       5.420  -2.486  -4.746  1.00  0.00     0.049 A 
HETATM    4  C   UNL     1       5.166  -3.845  -4.573  1.00  0.00     0.103 A 
HETATM    5  N   UNL     1       4.762  -4.316  -3.372  1.00  0.00    -0.351 N 
ATOM      6  HN  UNL     1       4.573  -5.310  -3.240  1.00  0.00     0.166 HD
HETATM    7  C   UNL     1       4.612  -3.440  -2.343  1.00  0.00     0.106 A 
ENDROOT
BRANCH   4   8
HETATM    8  N   UNL     1       5.294  -4.730  -5.611  1.00  0.00    -0.362 N 
HETATM    9  C   UNL     1       4.435  -5.914  -5.678  1.00  0.00     0.156 C 
HETATM   10  C   UNL     1       5.284  -7.179  -5.908  1.00  0.00     0.136 C 
HETATM   11  C   UNL     1       4.389  -8.378  -6.191  1.00  0.00     0.041 C 
HETATM   12  O   UNL     1       6.165  -7.021  -7.042  1.00  0.00    -0.378 OA
HETATM   13  C   UNL     1       7.057  -5.909  -6.837  1.00  0.00     0.136 C 
HETATM   14  C   UNL     1       8.005  -5.843  -8.025  1.00  0.00     0.041 C 
HETATM   15  C   UNL     1       6.268  -4.589  -6.690  1.00  0.00     0.156 C 
ENDBRANCH   4   8
BRANCH   1  16
HETATM   16  C   UNL     1       4.597  -1.202  -1.280  1.00  0.00     0.253 C 
HETATM   17  N   UNL     1       5.237   0.019  -1.306  1.00  0.00    -0.353 N 
HETATM   18  H   UNL     1       6.016   0.143  -1.938  1.00  0.00     0.163 HD
HETATM   19  O   UNL     1       3.867  -1.573  -0.371  1.00  0.00    -0.268 OA
BRANCH  17  20
HETATM   20  C   UNL     1       5.100   0.992  -0.234  1.00  0.00     0.076 C 
HETATM   21  C   UNL     1       6.111   0.710   0.872  1.00  0.00     0.032 C 
HETATM   22  C   UNL     1       5.285   2.397  -0.800  1.00  0.00     0.032 C 
ENDBRANCH  17  20
ENDBRANCH   1  16
TORSDOF 3
