REMARK  5 active torsions:
REMARK  status: ('A' for Active; 'I' for Inactive)
REMARK    1  A    between atoms: C_2  and  C_3 
REMARK    2  A    between atoms: C_2  and  N_10 
REMARK    3  A    between atoms: C_3  and  N_4 
REMARK       I    between atoms: N_10  and  C_11 
REMARK    4  A    between atoms: C_11  and  C_13 
REMARK    5  A    between atoms: C_13  and  C_14 
ROOT
HETATM    1  N   UNL     1       3.267   0.871   1.423  1.00  0.00    -0.355 N 
HETATM    2  C   UNL     1       4.599   1.217   1.577  1.00  0.00     0.222 C 
HETATM    3  O   UNL     1       5.494   1.108   0.747  1.00  0.00    -0.273 OA
HETATM    4  H   UNL     1       2.779   0.691   2.290  1.00  0.00     0.162 HD
ENDROOT
BRANCH   1   5
HETATM    5  C   UNL     1       2.648   0.250   0.231  1.00  0.00     0.108 C 
HETATM    6  C   UNL     1       1.119   0.255   0.413  1.00  0.00     0.034 C 
BRANCH   5   7
HETATM    7  C   UNL     1       2.975   0.918  -1.143  1.00  0.00     0.297 C 
BRANCH   7   8
HETATM    8  N   UNL     1       4.375   0.861  -1.550  1.00  0.00     0.094 N 
HETATM    9  C   UNL     1       4.714   1.666  -2.721  1.00  0.00     0.298 C 
HETATM   10  C   UNL     1       4.346   0.963  -4.037  1.00  0.00     0.198 C 
HETATM   11  O   UNL     1       4.939  -0.339  -4.132  1.00  0.00    -0.388 OA
HETATM   12  C   UNL     1       4.581  -1.154  -3.009  1.00  0.00     0.198 C 
HETATM   13  C   UNL     1       4.959  -0.480  -1.686  1.00  0.00     0.298 C 
ENDBRANCH   7   8
ENDBRANCH   5   7
ENDBRANCH   1   5
BRANCH   2  14
HETATM   14  C   UNL     1       4.967   1.760   2.937  1.00  0.00     0.146 C 
BRANCH  14  15
HETATM   15  C   UNL     1       4.551   3.169   3.146  1.00  0.00     0.006 A 
HETATM   16  C   UNL     1       4.822   4.343   2.387  1.00  0.00     0.038 A 
HETATM   17  C   UNL     1       5.587   4.531   1.127  1.00  0.00     0.071 C 
HETATM   18  N   UNL     1       4.279   5.427   2.962  1.00  0.00    -0.265 N 
HETATM   19  O   UNL     1       3.665   4.981   4.112  1.00  0.00    -0.242 OA
ATOM     20  HN  UNL     1       4.314   6.386   2.618  1.00  0.00     0.194 HD
HETATM   21  C   UNL     1       3.840   3.641   4.223  1.00  0.00     0.081 A 
HETATM   22  C   UNL     1       3.274   2.997   5.429  1.00  0.00     0.079 C 
ENDBRANCH  14  15
ENDBRANCH   2  14
TORSDOF 5
