REMARK  8 active torsions:
REMARK  status: ('A' for Active; 'I' for Inactive)
REMARK    1  A    between atoms: C_2  and  C_3 
REMARK    2  A    between atoms: C_2  and  N_10 
REMARK    3  A    between atoms: C_3  and  N_4 
REMARK    4  A    between atoms: N_10  and  C_11 
REMARK    5  A    between atoms: C_11  and  C_12 
REMARK    6  A    between atoms: C_12  and  O_13 
REMARK    7  A    between atoms: C_12  and  C_14 
REMARK    8  A    between atoms: C_14  and  N_15 
ROOT
HETATM    1  C   UNL     1       4.405   1.326  -0.489  1.00  0.00     0.303 C 
ENDROOT
BRANCH   1   2
HETATM    2  N   UNL     1       2.944   1.238  -0.542  1.00  0.00     0.091 N 
HETATM    3  H   UNL     1       2.553   1.932   0.101  1.00  0.00     0.316 HD
BRANCH   2   4
HETATM    4  C   UNL     1       2.415  -0.110  -0.239  1.00  0.00     0.236 C 
HETATM    5  C   UNL     1       0.886   0.010  -0.262  1.00  0.00     0.044 C 
BRANCH   4   6
HETATM    6  C   UNL     1       2.920  -1.163  -1.247  1.00  0.00     0.183 C 
BRANCH   6   7
HETATM    7  N   UNL     1       2.340  -2.485  -1.102  1.00  0.00    -0.302 N 
HETATM    8  C   UNL     1       1.663  -3.178  -2.063  1.00  0.00     0.111 A 
HETATM    9  C   UNL     1       1.392  -4.411  -1.521  1.00  0.00     0.037 A 
HETATM   10  C   UNL     1       1.953  -4.364  -0.233  1.00  0.00     0.108 A 
HETATM   11  N   UNL     1       2.540  -3.195   0.024  1.00  0.00    -0.310 N 
ATOM     12  HN  UNL     1       3.026  -2.907   0.873  1.00  0.00     0.186 HD
ENDBRANCH   6   7
ENDBRANCH   4   6
ENDBRANCH   2   4
ENDBRANCH   1   2
BRANCH   1  13
HETATM   13  C   UNL     1       4.893   2.783  -0.695  1.00  0.00     0.174 C 
BRANCH  13  14
HETATM   14  O   UNL     1       4.364   3.592   0.365  1.00  0.00    -0.392 OA
HETATM   15  H   UNL     1       4.660   3.213   1.210  1.00  0.00     0.210 HD
ENDBRANCH  13  14
BRANCH  13  16
HETATM   16  C   UNL     1       6.443   2.778  -0.682  1.00  0.00     0.305 C 
BRANCH  16  17
HETATM   17  N   UNL     1       7.149   3.995  -1.119  1.00  0.00     0.096 N 
HETATM   18  C   UNL     1       8.616   3.774  -1.088  1.00  0.00     0.303 C 
HETATM   19  C   UNL     1       9.189   3.733   0.347  1.00  0.00     0.146 C 
HETATM   20  C   UNL     1      10.691   3.491   0.337  1.00  0.00     0.041 C 
HETATM   21  O   UNL     1       8.927   4.974   1.016  1.00  0.00    -0.378 OA
HETATM   22  C   UNL     1       7.512   5.237   1.079  1.00  0.00     0.146 C 
HETATM   23  C   UNL     1       7.340   6.607   1.726  1.00  0.00     0.041 C 
HETATM   24  C   UNL     1       6.864   5.211  -0.329  1.00  0.00     0.303 C 
ENDBRANCH  16  17
ENDBRANCH  13  16
ENDBRANCH   1  13
TORSDOF 8
