REMARK  5 active torsions:
REMARK  status: ('A' for Active; 'I' for Inactive)
REMARK    1  A    between atoms: O_1  and  C_2 
REMARK    2  A    between atoms: C_2  and  C_4 
REMARK    3  A    between atoms: C_7  and  N_10 
REMARK       I    between atoms: N_10  and  C_11 
REMARK    4  A    between atoms: C_11  and  C_13 
REMARK    5  A    between atoms: C_13  and  C_14 
ROOT
HETATM    1  N   UNL     1       1.685  -0.465  -4.586  1.00  0.00    -0.356 N 
HETATM    2  C   UNL     1       1.018  -0.027  -5.714  1.00  0.00     0.222 C 
HETATM    3  O   UNL     1      -0.154   0.341  -5.708  1.00  0.00    -0.273 OA
HETATM    4  H   UNL     1       2.690  -0.564  -4.636  1.00  0.00     0.162 HD
ENDROOT
BRANCH   1   5
HETATM    5  C   UNL     1       1.040  -0.491  -3.278  1.00  0.00     0.084 C 
HETATM    6  C   UNL     1       1.169   0.859  -2.561  1.00  0.00     0.026 C 
HETATM    7  C   UNL     1       2.580   1.131  -2.037  1.00  0.00     0.017 C 
HETATM    8  C   UNL     1       3.135  -0.007  -1.174  1.00  0.00     0.084 C 
HETATM    9  C   UNL     1       3.002  -1.362  -1.886  1.00  0.00     0.017 C 
HETATM   10  C   UNL     1       1.595  -1.633  -2.424  1.00  0.00     0.026 C 
BRANCH   8  11
HETATM   11  C   UNL     1       2.510  -0.034   0.217  1.00  0.00     0.143 C 
HETATM   12  O   UNL     1       1.821  -0.940   0.658  1.00  0.00    -0.650 OA
BRANCH  11  13
HETATM   13  O   UNL     1       2.822   1.049   0.965  1.00  0.00    -0.776 OA
HETATM   14  H   UNL     1       3.407   1.692   0.524  1.00  0.00     0.167 HD
ENDBRANCH  11  13
ENDBRANCH   8  11
ENDBRANCH   1   5
BRANCH   2  15
HETATM   15  C   UNL     1       1.861  -0.026  -6.977  1.00  0.00     0.141 C 
BRANCH  15  16
HETATM   16  C   UNL     1       2.527   1.302  -7.229  1.00  0.00    -0.047 A 
HETATM   17  C   UNL     1       3.919   1.412  -7.277  1.00  0.00     0.024 A 
HETATM   18  C   UNL     1       4.479   2.658  -7.517  1.00  0.00     0.088 A 
HETATM   19  N   UNL     1       3.758   3.783  -7.709  1.00  0.00    -0.375 N 
HETATM   20  C   UNL     1       2.415   3.655  -7.669  1.00  0.00     0.088 A 
ATOM     21  HN  UNL     1       4.206   4.684  -7.876  1.00  0.00     0.164 HD
HETATM   22  C   UNL     1       1.763   2.454  -7.438  1.00  0.00     0.024 A 
ENDBRANCH  15  16
ENDBRANCH   2  15
TORSDOF 5
