REMARK  7 active torsions:
REMARK  status: ('A' for Active; 'I' for Inactive)
REMARK    1  A    between atoms: C_4  and  C_5 
REMARK       I    between atoms: C_5  and  N_7 
REMARK    2  A    between atoms: N_7  and  C_8 
REMARK    3  A    between atoms: C_8  and  C_9 
REMARK    4  A    between atoms: C_9  and  C_10 
REMARK       I    between atoms: C_10  and  N_12 
REMARK    5  A    between atoms: N_12  and  C_13 
REMARK    6  A    between atoms: C_13  and  C_14 
REMARK    7  A    between atoms: C_14  and  C_15 
ROOT
HETATM    1  C   UNL     1       1.094  -6.004  -4.196  1.00  0.00     0.219 C 
HETATM    2  O   UNL     1       0.888  -5.480  -5.287  1.00  0.00    -0.274 OA
HETATM    3  N   UNL     1       0.635  -7.261  -3.868  1.00  0.00    -0.361 N 
HETATM    4  H   UNL     1       0.896  -7.666  -2.977  1.00  0.00     0.162 HD
ENDROOT
BRANCH   1   5
HETATM    5  C   UNL     1       1.907  -5.341  -3.107  1.00  0.00     0.122 C 
BRANCH   5   6
HETATM    6  C   UNL     1       1.833  -3.823  -3.242  1.00  0.00     0.132 C 
BRANCH   6   7
HETATM    7  N   UNL     1       2.594  -3.127  -2.219  1.00  0.00    -0.360 N 
HETATM    8  C   UNL     1       2.199  -3.125  -0.904  1.00  0.00     0.222 C 
HETATM    9  O   UNL     1       1.239  -3.755  -0.475  1.00  0.00    -0.273 OA
HETATM   10  H   UNL     1       3.345  -2.515  -2.509  1.00  0.00     0.162 HD
BRANCH   8  11
HETATM   11  C   UNL     1       3.052  -2.301  -0.005  1.00  0.00     0.082 A 
HETATM   12  C   UNL     1       3.829  -2.921   1.138  1.00  0.00    -0.005 A 
HETATM   13  C   UNL     1       3.778  -4.385   1.427  1.00  0.00     0.011 C 
HETATM   14  C   UNL     1       2.637  -2.053   1.428  1.00  0.00     0.019 A 
ENDBRANCH   8  11
ENDBRANCH   6   7
ENDBRANCH   5   6
ENDBRANCH   1   5
BRANCH   3  15
HETATM   15  C   UNL     1      -0.148  -8.043  -4.814  1.00  0.00     0.128 C 
BRANCH  15  16
HETATM   16  C   UNL     1      -0.648  -9.352  -4.210  1.00  0.00     0.076 C 
BRANCH  16  17
HETATM   17  C   UNL     1      -1.480 -10.150  -5.180  1.00  0.00     0.010 A 
HETATM   18  C   UNL     1      -2.860  -9.964  -5.256  1.00  0.00     0.025 A 
HETATM   19  C   UNL     1      -3.599 -10.757  -6.130  1.00  0.00     0.003 A 
HETATM   20  C   UNL     1      -2.947 -11.703  -6.909  1.00  0.00     0.017 A 
HETATM   21  C   UNL     1      -1.572 -11.811  -6.788  1.00  0.00     0.088 A 
HETATM   22  N   UNL     1      -0.829 -11.058  -5.945  1.00  0.00    -0.369 N 
ATOM     23  HN  UNL     1       0.183 -11.170  -5.888  1.00  0.00     0.165 HD
ENDBRANCH  16  17
ENDBRANCH  15  16
ENDBRANCH   3  15
TORSDOF 7
