REMARK  3 active torsions:
REMARK  status: ('A' for Active; 'I' for Inactive)
REMARK    1  A    between atoms: C_6  and  N_8 
REMARK       I    between atoms: N_8  and  C_9 
REMARK    2  A    between atoms: C_9  and  C_11 
REMARK    3  A    between atoms: C_11  and  N_12 
ROOT
HETATM    1  N   UNL     1       2.874  -3.067  -2.174  1.00  0.00    -0.355 N 
HETATM    2  C   UNL     1       2.141  -3.808  -3.077  1.00  0.00     0.237 C 
HETATM    3  O   UNL     1       1.114  -3.391  -3.615  1.00  0.00    -0.272 OA
HETATM    4  H   UNL     1       3.742  -3.436  -1.803  1.00  0.00     0.162 HD
ENDROOT
BRANCH   2   5
HETATM    5  C   UNL     1       2.637  -5.228  -3.327  1.00  0.00     0.255 C 
BRANCH   5   6
HETATM    6  N   UNL     1       1.645  -6.182  -2.849  1.00  0.00    -0.246 N 
HETATM    7  N   UNL     1       0.447  -6.221  -3.592  1.00  0.00    -0.261 N 
HETATM    8  C   UNL     1      -0.670  -6.868  -3.136  1.00  0.00     0.260 C 
HETATM    9  H   UNL     1       0.270  -5.460  -4.248  1.00  0.00     0.190 HD
HETATM   10  O   UNL     1      -1.770  -6.762  -3.665  1.00  0.00    -0.267 OA
HETATM   11  C   UNL     1      -0.486  -7.728  -1.954  1.00  0.00     0.081 C 
HETATM   12  C   UNL     1       0.645  -7.686  -1.244  1.00  0.00     0.081 C 
HETATM   13  C   UNL     1       1.763  -6.798  -1.624  1.00  0.00     0.262 C 
HETATM   14  O   UNL     1       2.725  -6.671  -0.873  1.00  0.00    -0.267 OA
ENDBRANCH   5   6
ENDBRANCH   2   5
BRANCH   1  15
HETATM   15  C   UNL     1       2.465  -1.719  -1.810  1.00  0.00     0.084 C 
HETATM   16  C   UNL     1       3.029  -0.684  -2.788  1.00  0.00     0.025 C 
HETATM   17  C   UNL     1       2.578   0.727  -2.418  1.00  0.00     0.002 C 
HETATM   18  C   UNL     1       2.911   1.073  -0.966  1.00  0.00     0.004 C 
HETATM   19  C   UNL     1       2.411   0.023   0.040  1.00  0.00    -0.017 C 
HETATM   20  C   UNL     1       0.889   0.090   0.214  1.00  0.00     0.010 C 
HETATM   21  C   UNL     1       2.875  -1.383  -0.373  1.00  0.00     0.029 C 
ENDBRANCH   1  15
TORSDOF 3
