REMARK  6 active torsions:
REMARK  status: ('A' for Active; 'I' for Inactive)
REMARK    1  A    between atoms: O_2  and  C_3 
REMARK    2  A    between atoms: C_3  and  C_4 
REMARK    3  A    between atoms: C_4  and  N_5 
REMARK       I    between atoms: N_5  and  C_6 
REMARK    4  A    between atoms: C_6  and  C_8 
REMARK    5  A    between atoms: C_8  and  N_9 
REMARK    6  A    between atoms: C_11  and  N_12 
ROOT
HETATM    1  N   UNL     1       7.783  -4.013   1.757  1.00  0.00    -0.293 N 
HETATM    2  C   UNL     1       9.024  -3.433   1.737  1.00  0.00     0.141 A 
HETATM    3  C   UNL     1       9.601  -3.744   2.937  1.00  0.00     0.060 A 
HETATM    4  C   UNL     1       8.645  -4.518   3.620  1.00  0.00     0.137 A 
HETATM    5  N   UNL     1       7.532  -4.696   2.899  1.00  0.00    -0.307 N 
ATOM      6  HN  UNL     1       6.694  -5.221   3.150  1.00  0.00     0.186 HD
ENDROOT
BRANCH   1   7
HETATM    7  C   UNL     1       6.844  -4.103   0.655  1.00  0.00     0.250 C 
BRANCH   7   8
HETATM    8  C   UNL     1       6.291  -2.757   0.247  1.00  0.00     0.237 C 
HETATM    9  N   UNL     1       4.915  -2.630   0.350  1.00  0.00    -0.358 N 
HETATM   10  H   UNL     1       4.428  -3.229   1.010  1.00  0.00     0.162 HD
HETATM   11  O   UNL     1       7.000  -1.858  -0.202  1.00  0.00    -0.272 OA
BRANCH   9  12
HETATM   12  C   UNL     1       4.290  -1.345   0.074  1.00  0.00     0.148 C 
BRANCH  12  13
HETATM   13  C   UNL     1       2.775  -1.376   0.267  1.00  0.00     0.186 C 
BRANCH  13  14
HETATM   14  O   UNL     1       2.490  -1.653   1.642  1.00  0.00    -0.394 OA
HETATM   15  C   UNL     1       1.096  -1.578   1.914  1.00  0.00     0.201 C 
ENDBRANCH  13  14
ENDBRANCH  12  13
ENDBRANCH   9  12
ENDBRANCH   7   8
ENDBRANCH   1   7
BRANCH   3  16
HETATM   16  N   UNL     1      10.826  -3.380   3.335  1.00  0.00    -0.397 N 
HETATM   17  H   UNL     1      11.459  -2.864   2.732  1.00  0.00     0.156 HD
HETATM   18  H   UNL     1      11.242  -3.704   4.201  1.00  0.00     0.156 HD
ENDBRANCH   3  16
TORSDOF 6
