REMARK  2 active torsions:
REMARK  status: ('A' for Active; 'I' for Inactive)
REMARK    1  A    between atoms: C_10  and  N_11 
REMARK    2  A    between atoms: N_11  and  C_12 
ROOT
HETATM    1  N   UNL     1       5.108  -1.488  -4.153  1.00  0.00    -0.190 NA
HETATM    2  C   UNL     1       5.412  -1.293  -3.044  1.00  0.00     0.121 C 
HETATM    3  C   UNL     1       5.847  -0.991  -1.714  1.00  0.00     0.158 A 
HETATM    4  N   UNL     1       7.123  -0.461  -1.706  1.00  0.00    -0.353 N 
ATOM      5  HN  UNL     1       7.666  -0.354  -2.563  1.00  0.00     0.166 HD
HETATM    6  C   UNL     1       7.610  -0.094  -0.509  1.00  0.00     0.106 A 
HETATM    7  C   UNL     1       6.878  -0.243   0.642  1.00  0.00     0.106 A 
HETATM    8  N   UNL     1       5.640  -0.777   0.634  1.00  0.00    -0.349 N 
ATOM      9  HN  UNL     1       5.118  -0.885   1.504  1.00  0.00     0.167 HD
HETATM   10  C   UNL     1       5.096  -1.170  -0.550  1.00  0.00     0.139 A 
ENDROOT
BRANCH  10  11
HETATM   11  N   UNL     1       3.864  -1.633  -0.289  1.00  0.00    -0.367 N 
HETATM   12  H   UNL     1       3.820  -1.631   0.733  1.00  0.00     0.161 HD
BRANCH  11  13
HETATM   13  C   UNL     1       2.683  -2.255  -0.860  1.00  0.00     0.114 C 
HETATM   14  C   UNL     1       2.245  -1.801  -2.250  1.00  0.00     0.059 C 
HETATM   15  C   UNL     1       1.029  -0.938  -1.947  1.00  0.00     0.124 C 
HETATM   16  C   UNL     1       1.424   0.270  -1.084  1.00  0.00     0.034 C 
HETATM   17  O   UNL     1       0.357  -1.809  -1.008  1.00  0.00    -0.378 OA
HETATM   18  C   UNL     1       1.434  -0.339   0.319  1.00  0.00     0.036 C 
HETATM   19  C   UNL     1       1.419  -1.832  -0.022  1.00  0.00     0.144 C 
ENDBRANCH  11  13
ENDBRANCH  10  11
TORSDOF 2
