REMARK  6 active torsions:
REMARK  status: ('A' for Active; 'I' for Inactive)
REMARK    1  A    between atoms: C_2  and  CA_3 
REMARK    2  A    between atoms: CA_3  and  N_4 
REMARK    3  A    between atoms: CA_3  and  C_17 
REMARK       I    between atoms: N_4  and  C_5 
REMARK    4  A    between atoms: C_5  and  C_7 
REMARK    5  A    between atoms: C_7  and  N_10 
REMARK    6  A    between atoms: C_17  and  OXT_19 
ROOT
HETATM    1  N   UNL     1       2.462  -0.243   2.269  1.00  0.00    -0.344 N 
HETATM    2  C   UNL     1       1.208  -0.046   2.798  1.00  0.00     0.248 C 
HETATM    3  O   UNL     1       0.576   0.963   2.461  1.00  0.00    -0.271 OA
HETATM    4  H   UNL     1       3.047  -0.996   2.615  1.00  0.00     0.163 HD
ENDROOT
BRANCH   2   5
HETATM    5  C   UNL     1       0.670  -1.054   3.837  1.00  0.00     0.126 C 
HETATM    6  C   UNL     1       1.775  -1.407   4.858  1.00  0.00     0.051 C 
HETATM    7  C   UNL     1      -0.462  -0.362   4.634  1.00  0.00     0.051 C 
BRANCH   5   8
HETATM    8  N   UNL     1       0.131  -2.242   3.155  1.00  0.00    -0.283 N 
HETATM    9  C   UNL     1      -0.958  -2.302   2.322  1.00  0.00     0.137 A 
HETATM   10  C   UNL     1      -1.167  -3.632   2.054  1.00  0.00     0.068 A 
HETATM   11 CL   UNL     1      -2.384  -4.337   1.116  1.00  0.00    -0.081 Cl
HETATM   12  C   UNL     1      -0.151  -4.306   2.746  1.00  0.00     0.132 A 
HETATM   13  N   UNL     1       0.658  -3.466   3.402  1.00  0.00    -0.307 N 
ATOM     14  HN  UNL     1       1.481  -3.694   3.959  1.00  0.00     0.186 HD
ENDBRANCH   5   8
ENDBRANCH   2   5
BRANCH   1  15
HETATM   15  CA  UNL     1       3.085   0.736   1.360  1.00  0.00     0.182 C 
BRANCH  15  16
HETATM   16  C   UNL     1       4.245   0.122   0.564  1.00  0.00     0.032 C 
HETATM   17  C   UNL     1       3.827  -1.067  -0.285  1.00  0.00     0.007 C 
ENDBRANCH  15  16
BRANCH  15  18
HETATM   18  C   UNL     1       3.582   1.976   2.140  1.00  0.00     0.163 C 
HETATM   19  O   UNL     1       4.734   2.390   2.132  1.00  0.00    -0.648 OA
BRANCH  18  20
HETATM   20  OXT UNL     1       2.598   2.623   2.814  1.00  0.00    -0.775 OA
HETATM   21  HXT UNL     1       1.706   2.230   2.654  1.00  0.00     0.167 HD
ENDBRANCH  18  20
ENDBRANCH  15  18
ENDBRANCH   1  15
TORSDOF 6
