REMARK  4 active torsions:
REMARK  status: ('A' for Active; 'I' for Inactive)
REMARK    1  A    between atoms: N_7  and  C_8 
REMARK    2  A    between atoms: C_8  and  C_9 
REMARK       I    between atoms: C_9  and  N_11 
REMARK    3  A    between atoms: N_11  and  C_12 
REMARK    4  A    between atoms: C_12  and  C_13 
ROOT
HETATM    1  C   UNL     1       4.847  -2.491  -0.457  1.00  0.00     0.234 C 
ENDROOT
BRANCH   1   2
HETATM    2  N   UNL     1       5.827  -2.384   0.621  1.00  0.00    -0.313 N 
HETATM    3  C   UNL     1       7.077  -2.975   0.446  1.00  0.00     0.247 A 
HETATM    4  C   UNL     1       8.110  -2.648   1.472  1.00  0.00     0.077 A 
HETATM    5  O   UNL     1       7.356  -3.724  -0.487  1.00  0.00    -0.268 OA
HETATM    6  C   UNL     1       7.792  -1.883   2.526  1.00  0.00     0.049 A 
HETATM    7  C   UNL     1       6.455  -1.384   2.679  1.00  0.00     0.132 A 
HETATM    8  F   UNL     1       6.169  -0.630   3.759  1.00  0.00    -0.205 F 
HETATM    9  C   UNL     1       5.528  -1.626   1.746  1.00  0.00     0.137 A 
ENDBRANCH   1   2
BRANCH   1  10
HETATM   10  C   UNL     1       3.904  -3.689  -0.362  1.00  0.00     0.235 C 
HETATM   11  O   UNL     1       2.698  -3.536  -0.171  1.00  0.00    -0.272 OA
HETATM   12  N   UNL     1       4.473  -4.927  -0.590  1.00  0.00    -0.359 N 
HETATM   13  H   UNL     1       5.490  -4.998  -0.600  1.00  0.00     0.162 HD
BRANCH  12  14
HETATM   14  C   UNL     1       3.647  -6.118  -0.593  1.00  0.00     0.127 C 
BRANCH  14  15
HETATM   15  C   UNL     1       4.369  -7.203  -1.368  1.00  0.00     0.003 C 
HETATM   16  C   UNL     1       3.580  -8.534  -1.538  1.00  0.00     0.006 C 
HETATM   17  C   UNL     1       4.928  -9.268  -1.395  1.00  0.00     0.001 C 
HETATM   18  C   UNL     1       5.426  -8.043  -0.599  1.00  0.00     0.006 C 
ENDBRANCH  14  15
ENDBRANCH  12  14
ENDBRANCH   1  10
TORSDOF 4
