REMARK  5 active torsions:
REMARK  status: ('A' for Active; 'I' for Inactive)
REMARK    1  A    between atoms: N_2  and  C_4 
REMARK    2  A    between atoms: C_4  and  C_5 
REMARK       I    between atoms: C_5  and  N_7 
REMARK    3  A    between atoms: N_7  and  C_8 
REMARK    4  A    between atoms: C_8  and  C_9 
REMARK    5  A    between atoms: C_9  and  C_15 
ROOT
HETATM    1  C   UNL     1       7.077   3.890  -1.418  1.00  0.00     0.003 C 
HETATM    2  C   UNL     1       8.055   4.471  -0.353  1.00  0.00     0.016 C 
HETATM    3  C   UNL     1       7.346   5.118   0.841  1.00  0.00     0.001 C 
HETATM    4  C   UNL     1       6.422   6.241   0.389  1.00  0.00     0.000 C 
HETATM    5  C   UNL     1       5.441   5.773  -0.678  1.00  0.00     0.001 C 
HETATM    6  C   UNL     1       6.135   5.060  -1.840  1.00  0.00     0.016 C 
ENDROOT
BRANCH   1   7
HETATM    7  C   UNL     1       6.255   2.704  -0.801  1.00  0.00     0.137 C 
BRANCH   7   8
HETATM    8  N   UNL     1       7.082   1.623  -0.273  1.00  0.00    -0.359 N 
HETATM    9  C   UNL     1       7.093   1.280   1.063  1.00  0.00     0.246 C 
HETATM   10  O   UNL     1       6.395   1.841   1.905  1.00  0.00    -0.272 OA
HETATM   11  H   UNL     1       7.726   1.139  -0.892  1.00  0.00     0.162 HD
BRANCH   9  12
HETATM   12  C   UNL     1       8.014   0.115   1.437  1.00  0.00     0.373 C 
BRANCH  12  13
HETATM   13  N   UNL     1       9.442   0.400   1.151  1.00  0.00     0.088 N 
HETATM   14  C   UNL     1       9.924   1.525   1.963  1.00  0.00     0.310 C 
HETATM   15  C   UNL     1      10.238  -0.789   1.484  1.00  0.00     0.310 C 
ENDBRANCH  12  13
ENDBRANCH   9  12
ENDBRANCH   7   8
ENDBRANCH   1   7
BRANCH   1  16
HETATM   16  C   UNL     1       7.785   3.358  -2.690  1.00  0.00    -0.045 A 
HETATM   17  C   UNL     1       7.024   2.863  -3.764  1.00  0.00     0.025 A 
HETATM   18  C   UNL     1       7.661   2.323  -4.872  1.00  0.00     0.088 A 
HETATM   19  N   UNL     1       8.998   2.249  -5.002  1.00  0.00    -0.375 N 
HETATM   20  C   UNL     1       9.724   2.745  -3.980  1.00  0.00     0.088 A 
ATOM     21  HN  UNL     1       9.437   1.841  -5.827  1.00  0.00     0.164 HD
HETATM   22  C   UNL     1       9.178   3.301  -2.829  1.00  0.00     0.025 A 
ENDBRANCH   1  16
TORSDOF 5
