REMARK  6 active torsions:
REMARK  status: ('A' for Active; 'I' for Inactive)
REMARK    1  A    between atoms: N_7  and  C_8 
REMARK    2  A    between atoms: C_8  and  C_9 
REMARK    3  A    between atoms: C_9  and  C_10 
REMARK    4  A    between atoms: C_10  and  N_11 
REMARK       I    between atoms: N_11  and  C_12 
REMARK    5  A    between atoms: C_12  and  C_14 
REMARK    6  A    between atoms: C_14  and  N_15 
ROOT
HETATM    1  N   UNL     1       1.020  -0.813   2.625  1.00  0.00    -0.360 N 
HETATM    2  C   UNL     1       0.316  -1.327   3.691  1.00  0.00     0.237 C 
HETATM    3  O   UNL     1       0.858  -1.833   4.671  1.00  0.00    -0.272 OA
HETATM    4  H   UNL     1       0.544  -0.471   1.798  1.00  0.00     0.162 HD
ENDROOT
BRANCH   1   5
HETATM    5  C   UNL     1       2.470  -0.841   2.584  1.00  0.00     0.124 C 
BRANCH   5   6
HETATM    6  C   UNL     1       3.010  -2.175   2.073  1.00  0.00     0.050 C 
BRANCH   6   7
HETATM    7  C   UNL     1       2.665  -2.459   0.602  1.00  0.00     0.274 C 
BRANCH   7   8
HETATM    8  N   UNL     1       3.084  -1.403  -0.334  1.00  0.00     0.092 N 
HETATM    9  C   UNL     1       2.461  -1.552  -1.671  1.00  0.00     0.219 C 
HETATM   10  C   UNL     1       2.736  -2.891  -2.374  1.00  0.00     0.043 C 
HETATM   11  C   UNL     1       2.855  -0.367  -2.575  1.00  0.00     0.035 C 
HETATM   12  C   UNL     1       4.365  -0.188  -2.675  1.00  0.00     0.004 C 
HETATM   13  C   UNL     1       4.970  -0.093  -1.283  1.00  0.00     0.030 C 
HETATM   14  C   UNL     1       4.547  -1.268  -0.402  1.00  0.00     0.273 C 
ENDBRANCH   7   8
ENDBRANCH   6   7
ENDBRANCH   5   6
ENDBRANCH   1   5
BRANCH   2  15
HETATM   15  C   UNL     1      -1.184  -1.229   3.579  1.00  0.00     0.249 C 
BRANCH  15  16
HETATM   16  N   UNL     1      -1.714  -0.357   4.594  1.00  0.00    -0.264 N 
HETATM   17  C   UNL     1      -1.688  -0.498   5.945  1.00  0.00     0.213 A 
HETATM   18  N   UNL     1      -2.339   0.511   6.476  1.00  0.00    -0.281 N 
HETATM   19  N   UNL     1      -2.772   1.280   5.421  1.00  0.00    -0.008 NA
ATOM     20  HN  UNL     1      -2.492   0.688   7.469  1.00  0.00     0.184 HD
HETATM   21  N   UNL     1      -2.401   0.750   4.263  1.00  0.00    -0.005 NA
ENDBRANCH  15  16
ENDBRANCH   2  15
TORSDOF 6
