REMARK  3 active torsions:
REMARK  status: ('A' for Active; 'I' for Inactive)
REMARK    1  A    between atoms: C_6  and  C_8 
REMARK       I    between atoms: C_8  and  N_10 
REMARK    2  A    between atoms: N_10  and  C_11 
REMARK    3  A    between atoms: C_13  and  C_18 
ROOT
HETATM    1  C   UNL     1       3.838  -4.624  -3.786  1.00  0.00     0.108 A 
HETATM    2  C   UNL     1       3.103  -5.763  -3.478  1.00  0.00     0.064 A 
HETATM    3  C   UNL     1       3.542  -7.002  -3.947  1.00  0.00     0.052 A 
HETATM    4  C   UNL     1       4.738  -7.054  -4.665  1.00  0.00     0.033 A 
HETATM    5  C   UNL     1       5.390  -5.864  -4.946  1.00  0.00     0.090 A 
HETATM    6  N   UNL     1       4.939  -4.650  -4.559  1.00  0.00    -0.352 N 
ATOM      7  HN  UNL     1       5.412  -3.791  -4.841  1.00  0.00     0.166 HD
ENDROOT
BRANCH   1   8
HETATM    8  N   UNL     1       3.452  -3.365  -3.327  1.00  0.00    -0.311 N 
HETATM    9  C   UNL     1       2.946  -3.142  -2.063  1.00  0.00     0.254 C 
HETATM   10  O   UNL     1       2.787  -4.006  -1.207  1.00  0.00    -0.270 OA
HETATM   11  H   UNL     1       3.908  -2.577  -3.775  1.00  0.00     0.170 HD
BRANCH   9  12
HETATM   12  C   UNL     1       2.534  -1.683  -1.827  1.00  0.00     0.241 C 
HETATM   13  O   UNL     1       3.125  -0.772  -2.765  1.00  0.00    -0.373 OA
HETATM   14  C   UNL     1       2.640   0.560  -2.526  1.00  0.00     0.199 C 
HETATM   15  C   UNL     1       2.942   1.028  -1.090  1.00  0.00     0.298 C 
HETATM   16  N   UNL     1       2.467   0.107  -0.038  1.00  0.00     0.089 N 
HETATM   17  C   UNL     1       1.020   0.190   0.156  1.00  0.00     0.310 C 
HETATM   18  C   UNL     1       2.887  -1.273  -0.381  1.00  0.00     0.313 C 
ENDBRANCH   9  12
ENDBRANCH   1   8
BRANCH   3  19
HETATM   19  C   UNL     1       2.755  -8.251  -3.690  1.00  0.00     0.417 C 
HETATM   20  F   UNL     1       1.572  -8.039  -3.044  1.00  0.00    -0.166 F 
HETATM   21  F   UNL     1       2.428  -8.904  -4.845  1.00  0.00    -0.166 F 
HETATM   22  F   UNL     1       3.434  -9.156  -2.936  1.00  0.00    -0.166 F 
ENDBRANCH   3  19
TORSDOF 3
