REMARK  5 active torsions:
REMARK  status: ('A' for Active; 'I' for Inactive)
REMARK    1  A    between atoms: N_11  and  C_12 
REMARK    2  A    between atoms: C_12  and  C_13 
REMARK       I    between atoms: C_13  and  N_15 
REMARK    3  A    between atoms: N_15  and  C_16 
REMARK    4  A    between atoms: C_16  and  C_17 
REMARK    5  A    between atoms: C_17  and  C_18 
ROOT
HETATM    1  C   UNL     1       0.908   0.080  -0.013  1.00  0.00     0.013 C 
HETATM    2  C   UNL     1       2.438  -0.017   0.011  1.00  0.00     0.019 C 
HETATM    3  C   UNL     1       3.039   0.818  -1.130  1.00  0.00     0.007 C 
HETATM    4  C   UNL     1       4.566   0.788  -1.111  1.00  0.00     0.001 C 
HETATM    5  C   UNL     1       5.121  -0.634  -1.079  1.00  0.00     0.003 C 
HETATM    6  C   UNL     1       4.521  -1.460   0.066  1.00  0.00     0.041 C 
HETATM    7  C   UNL     1       2.989  -1.464  -0.004  1.00  0.00     0.119 C 
HETATM    8  N   UNL     1       2.563  -2.263  -1.139  1.00  0.00    -0.324 N 
HETATM    9  C   UNL     1       1.947  -3.428  -0.751  1.00  0.00     0.326 C 
HETATM   10  O   UNL     1       1.679  -4.354  -1.498  1.00  0.00    -0.247 OA
HETATM   11  N   UNL     1       1.717  -3.370   0.583  1.00  0.00    -0.259 N 
HETATM   12  C   UNL     1       2.355  -2.293   1.135  1.00  0.00     0.257 C 
HETATM   13  O   UNL     1       2.386  -2.000   2.321  1.00  0.00    -0.270 OA
HETATM   14  H   UNL     1       2.888  -2.153  -2.091  1.00  0.00     0.165 HD
ENDROOT
BRANCH  11  15
HETATM   15  C   UNL     1       0.740  -4.186   1.265  1.00  0.00     0.239 C 
BRANCH  15  16
HETATM   16  C   UNL     1       1.290  -5.413   1.968  1.00  0.00     0.236 C 
HETATM   17  O   UNL     1       0.995  -5.651   3.142  1.00  0.00    -0.272 OA
HETATM   18  N   UNL     1       1.970  -6.322   1.186  1.00  0.00    -0.359 N 
HETATM   19  H   UNL     1       2.190  -6.103   0.219  1.00  0.00     0.162 HD
BRANCH  18  20
HETATM   20  C   UNL     1       2.437  -7.546   1.810  1.00  0.00     0.128 C 
BRANCH  20  21
HETATM   21  C   UNL     1       3.094  -8.548   0.869  1.00  0.00     0.076 C 
BRANCH  21  22
HETATM   22  C   UNL     1       3.558  -9.732   1.683  1.00  0.00     0.010 A 
HETATM   23  C   UNL     1       2.724 -10.831   1.882  1.00  0.00     0.025 A 
HETATM   24  C   UNL     1       3.132 -11.832   2.761  1.00  0.00     0.003 A 
HETATM   25  C   UNL     1       4.351 -11.711   3.415  1.00  0.00     0.017 A 
HETATM   26  C   UNL     1       5.123 -10.593   3.153  1.00  0.00     0.088 A 
HETATM   27  N   UNL     1       4.756  -9.608   2.304  1.00  0.00    -0.369 N 
ATOM     28  HN  UNL     1       5.358  -8.802   2.137  1.00  0.00     0.165 HD
ENDBRANCH  21  22
ENDBRANCH  20  21
ENDBRANCH  18  20
ENDBRANCH  15  16
ENDBRANCH  11  15
TORSDOF 5
