REMARK  5 active torsions:
REMARK  status: ('A' for Active; 'I' for Inactive)
REMARK    1  A    between atoms: C_2  and  N_3 
REMARK    2  A    between atoms: C_2  and  C_13 
REMARK    3  A    between atoms: N_3  and  C_4 
REMARK    4  A    between atoms: C_4  and  C_5 
REMARK    5  A    between atoms: C_5  and  N_6 
REMARK       I    between atoms: C_13  and  N_15 
ROOT
HETATM    1  N   UNL     1       2.778  -0.357  -1.513  1.00  0.00     0.098 N 
HETATM    2  H   UNL     1       2.351  -1.273  -1.662  1.00  0.00     0.317 HD
ENDROOT
BRANCH   1   3
HETATM    3  C   UNL     1       2.491   0.061  -0.115  1.00  0.00     0.307 C 
HETATM    4  C   UNL     1       0.990   0.006   0.190  1.00  0.00     0.053 C 
BRANCH   3   5
HETATM    5  C   UNL     1       3.084   1.448   0.244  1.00  0.00     0.252 C 
HETATM    6  O   UNL     1       2.355   2.360   0.652  1.00  0.00    -0.271 OA
HETATM    7  N   UNL     1       4.445   1.638   0.122  1.00  0.00    -0.350 N 
HETATM    8  C   UNL     1       5.458   0.678  -0.281  1.00  0.00     0.126 C 
HETATM    9  C   UNL     1       5.062   2.893   0.497  1.00  0.00     0.126 C 
HETATM   10  C   UNL     1       6.709   1.511  -0.563  1.00  0.00     0.021 C 
HETATM   11  C   UNL     1       6.273   2.967  -0.410  1.00  0.00     0.021 C 
ENDBRANCH   3   5
ENDBRANCH   1   3
BRANCH   1  12
HETATM   12  C   UNL     1       2.259   0.576  -2.528  1.00  0.00     0.292 C 
BRANCH  12  13
HETATM   13  C   UNL     1       2.658   0.129  -3.936  1.00  0.00     0.178 C 
BRANCH  13  14
HETATM   14  N   UNL     1       2.127   1.036  -4.935  1.00  0.00    -0.302 N 
HETATM   15  C   UNL     1       2.739   2.149  -5.435  1.00  0.00     0.118 A 
HETATM   16  C   UNL     1       1.848   2.716  -6.321  1.00  0.00    -0.028 A 
HETATM   17  C   UNL     1       2.012   3.942  -7.130  1.00  0.00     0.051 C 
HETATM   18  C   UNL     1       0.727   1.855  -6.278  1.00  0.00     0.115 A 
HETATM   19  N   UNL     1       0.896   0.832  -5.438  1.00  0.00    -0.310 N 
ATOM     20  HN  UNL     1       0.246   0.075  -5.227  1.00  0.00     0.186 HD
ENDBRANCH  13  14
ENDBRANCH  12  13
ENDBRANCH   1  12
TORSDOF 5
