REMARK  3 active torsions:
REMARK  status: ('A' for Active; 'I' for Inactive)
REMARK    1  A    between atoms: C_2  and  C_5 
REMARK    2  A    between atoms: C_10  and  N_11 
REMARK    3  A    between atoms: N_11  and  C_12 
ROOT
HETATM    1  C   UNL     1       3.000  -1.146  -0.884  1.00  0.00     0.090 A 
HETATM    2  N   UNL     1       4.215  -1.183  -1.469  1.00  0.00    -0.355 N 
ATOM      3  HN  UNL     1       4.799  -0.350  -1.547  1.00  0.00     0.166 HD
HETATM    4  C   UNL     1       4.613  -2.369  -1.941  1.00  0.00     0.093 A 
HETATM    5  C   UNL     1       3.849  -3.503  -1.859  1.00  0.00     0.065 A 
HETATM    6  C   UNL     1       2.585  -3.382  -1.309  1.00  0.00     0.103 A 
HETATM    7  N   UNL     1       2.151  -2.206  -0.824  1.00  0.00    -0.332 N 
ATOM      8  HN  UNL     1       1.217  -2.112  -0.425  1.00  0.00     0.168 HD
ENDROOT
BRANCH   6   9
HETATM    9  N   UNL     1       1.860  -4.569  -1.152  1.00  0.00    -0.369 N 
HETATM   10  H   UNL     1       2.144  -5.281  -1.813  1.00  0.00     0.161 HD
BRANCH   9  11
HETATM   11  C   UNL     1       0.423  -4.554  -0.898  1.00  0.00     0.114 C 
HETATM   12  C   UNL     1      -0.021  -5.992  -0.540  1.00  0.00     0.059 C 
HETATM   13  C   UNL     1      -0.966  -6.338  -1.686  1.00  0.00     0.124 C 
HETATM   14  C   UNL     1      -0.211  -6.456  -3.014  1.00  0.00     0.034 C 
HETATM   15  O   UNL     1      -1.655  -5.078  -1.840  1.00  0.00    -0.378 OA
HETATM   16  C   UNL     1      -0.019  -4.989  -3.401  1.00  0.00     0.036 C 
HETATM   17  C   UNL     1      -0.474  -4.271  -2.132  1.00  0.00     0.144 C 
ENDBRANCH   9  11
ENDBRANCH   6   9
BRANCH   1  18
HETATM   18  C   UNL     1       2.616   0.151  -0.166  1.00  0.00     0.007 C 
HETATM   19  C   UNL     1       3.770   1.180  -0.146  1.00  0.00     0.022 C 
HETATM   20  C   UNL     1       2.257  -0.175   1.297  1.00  0.00     0.022 C 
HETATM   21  C   UNL     1       1.413   0.798  -0.870  1.00  0.00     0.022 C 
ENDBRANCH   1  18
TORSDOF 3
