REMARK  4 active torsions:
REMARK  status: ('A' for Active; 'I' for Inactive)
REMARK    1  A    between atoms: C_2  and  C_4 
REMARK    2  A    between atoms: C_4  and  C_5 
REMARK    3  A    between atoms: C_11  and  N_12 
REMARK       I    between atoms: N_12  and  C_13 
REMARK       I    between atoms: C_13  and  N_15 
REMARK    4  A    between atoms: N_15  and  C_16 
ROOT
HETATM    1  N   UNL     1       5.290  -2.242   1.500  1.00  0.00    -0.301 N 
HETATM    2  C   UNL     1       4.496  -2.903   2.388  1.00  0.00     0.321 C 
HETATM    3  O   UNL     1       4.405  -4.125   2.310  1.00  0.00    -0.247 OA
HETATM    4  N   UNL     1       3.928  -2.171   3.395  1.00  0.00    -0.332 N 
HETATM    5  H   UNL     1       5.969  -2.850   1.059  1.00  0.00     0.171 HD
HETATM    6  H   UNL     1       4.438  -1.329   3.626  1.00  0.00     0.165 HD
ENDROOT
BRANCH   1   7
HETATM    7  C   UNL     1       5.517  -0.892   1.440  1.00  0.00     0.102 C 
HETATM    8  C   UNL     1       4.728   0.241   1.477  1.00  0.00     0.044 C 
HETATM    9  N   UNL     1       5.457   1.425   1.526  1.00  0.00    -0.355 N 
HETATM   10  C   UNL     1       6.744   1.172   1.399  1.00  0.00     0.049 C 
ATOM     11  HN  UNL     1       5.054   2.354   1.643  1.00  0.00     0.166 HD
HETATM   12  C   UNL     1       7.813   2.206   1.407  1.00  0.00     0.076 C 
HETATM   13  S   UNL     1       7.153  -0.481   1.205  1.00  0.00    -0.057 SA
BRANCH   8  14
HETATM   14  C   UNL     1       3.233   0.356   1.364  1.00  0.00     0.064 C 
BRANCH  14  15
HETATM   15  C   UNL     1       2.800   1.120   0.086  1.00  0.00    -0.017 C 
HETATM   16  C   UNL     1       3.155   0.358  -1.192  1.00  0.00     0.010 C 
HETATM   17  C   UNL     1       1.293   1.401   0.113  1.00  0.00     0.010 C 
ENDBRANCH  14  15
ENDBRANCH   8  14
ENDBRANCH   1   7
BRANCH   4  18
HETATM   18  C   UNL     1       3.193  -2.806   4.497  1.00  0.00     0.054 C 
HETATM   19  C   UNL     1       1.924  -3.501   3.974  1.00  0.00     0.041 C 
HETATM   20  C   UNL     1       2.807  -1.771   5.555  1.00  0.00     0.059 C 
HETATM   21  C   UNL     1       2.846  -2.524   6.874  1.00  0.00     0.170 C 
HETATM   22  O   UNL     1       3.485  -3.784   6.651  1.00  0.00    -0.389 OA
HETATM   23  C   UNL     1       4.045  -3.772   5.330  1.00  0.00     0.198 C 
ENDBRANCH   4  18
TORSDOF 4
