REMARK  7 active torsions:
REMARK  status: ('A' for Active; 'I' for Inactive)
REMARK    1  A    between atoms: C_2  and  C_3 
REMARK    2  A    between atoms: C_2  and  N_6 
REMARK       I    between atoms: N_6  and  C_8 
REMARK    3  A    between atoms: C_8  and  C_10 
REMARK    4  A    between atoms: N_14  and  C_15 
REMARK    5  A    between atoms: C_15  and  C_16 
REMARK       I    between atoms: C_16  and  N_18 
REMARK    6  A    between atoms: N_18  and  C_19 
REMARK    7  A    between atoms: C_19  and  C_20 
ROOT
HETATM    1  C   UNL     1       4.999  -2.886  -0.992  1.00  0.00     0.100 C 
HETATM    2  C   UNL     1       6.058  -3.016  -1.822  1.00  0.00     0.024 C 
HETATM    3  C   UNL     1       6.501  -4.315  -2.276  1.00  0.00     0.018 C 
HETATM    4  C   UNL     1       5.729  -5.389  -2.053  1.00  0.00     0.095 C 
HETATM    5  N   UNL     1       4.635  -5.291  -1.213  1.00  0.00    -0.315 N 
HETATM    6  C   UNL     1       4.438  -4.152  -0.439  1.00  0.00     0.263 C 
HETATM    7  O   UNL     1       3.781  -4.183   0.605  1.00  0.00    -0.267 OA
ENDROOT
BRANCH   5   8
HETATM    8  C   UNL     1       3.766  -6.443  -0.967  1.00  0.00     0.234 C 
BRANCH   8   9
HETATM    9  C   UNL     1       2.399  -6.262  -1.659  1.00  0.00     0.235 C 
HETATM   10  O   UNL     1       2.259  -6.434  -2.869  1.00  0.00    -0.272 OA
HETATM   11  N   UNL     1       1.356  -5.852  -0.837  1.00  0.00    -0.359 N 
HETATM   12  H   UNL     1       1.609  -5.404   0.040  1.00  0.00     0.162 HD
BRANCH  11  13
HETATM   13  C   UNL     1       0.030  -5.622  -1.393  1.00  0.00     0.127 C 
BRANCH  13  14
HETATM   14  C   UNL     1      -1.006  -5.797  -0.294  1.00  0.00     0.003 C 
HETATM   15  C   UNL     1      -2.480  -5.675  -0.786  1.00  0.00     0.006 C 
HETATM   16  C   UNL     1      -2.814  -5.047   0.580  1.00  0.00     0.001 C 
HETATM   17  C   UNL     1      -1.336  -4.603   0.651  1.00  0.00     0.006 C 
ENDBRANCH  13  14
ENDBRANCH  11  13
ENDBRANCH   8   9
ENDBRANCH   5   8
BRANCH   1  18
HETATM   18  C   UNL     1       4.472  -1.490  -0.752  1.00  0.00     0.259 C 
HETATM   19  N   UNL     1       3.096  -1.260  -0.574  1.00  0.00    -0.347 N 
HETATM   20  C   UNL     1       2.107  -2.327  -0.412  1.00  0.00     0.153 C 
HETATM   21  O   UNL     1       5.268  -0.547  -0.817  1.00  0.00    -0.267 OA
BRANCH  19  22
HETATM   22  C   UNL     1       2.632   0.130  -0.364  1.00  0.00     0.087 C 
HETATM   23  C   UNL     1       1.178   0.362  -0.809  1.00  0.00     0.033 C 
BRANCH  22  24
HETATM   24  C   UNL     1       2.773   0.542   1.088  1.00  0.00     0.008 A 
HETATM   25  C   UNL     1       2.479   1.982   1.464  1.00  0.00     0.007 A 
HETATM   26  C   UNL     1       3.880   1.457   1.561  1.00  0.00     0.007 A 
ENDBRANCH  22  24
ENDBRANCH  19  22
ENDBRANCH   1  18
TORSDOF 7
