REMARK  5 active torsions:
REMARK  status: ('A' for Active; 'I' for Inactive)
REMARK    1  A    between atoms: C_4  and  N_5 
REMARK       I    between atoms: N_5  and  C_6 
REMARK       I    between atoms: C_6  and  N_8 
REMARK    2  A    between atoms: N_8  and  C_9 
REMARK    3  A    between atoms: C_9  and  C_10 
REMARK    4  A    between atoms: C_10  and  C_11 
REMARK    5  A    between atoms: C_11  and  N_12 
ROOT
HETATM    1  N   UNL     1       5.354   5.194  -3.252  1.00  0.00    -0.293 N 
HETATM    2  C   UNL     1       6.111   4.685  -2.234  1.00  0.00     0.321 C 
HETATM    3  O   UNL     1       6.767   3.666  -2.421  1.00  0.00    -0.247 OA
HETATM    4  N   UNL     1       6.084   5.353  -1.049  1.00  0.00    -0.343 N 
HETATM    5  H   UNL     1       5.381   4.644  -4.098  1.00  0.00     0.172 HD
HETATM    6  H   UNL     1       5.521   6.198  -1.022  1.00  0.00     0.164 HD
ENDROOT
BRANCH   4   7
HETATM    7  C   UNL     1       6.886   5.015   0.103  1.00  0.00     0.126 C 
BRANCH   7   8
HETATM    8  C   UNL     1       8.292   5.618   0.039  1.00  0.00     0.039 C 
BRANCH   8   9
HETATM    9  C   UNL     1       8.233   7.142   0.014  1.00  0.00     0.127 C 
BRANCH   9  10
HETATM   10  N   UNL     1       9.534   7.805   0.021  1.00  0.00    -0.352 N 
HETATM   11  C   UNL     1      10.237   7.983  -1.247  1.00  0.00     0.125 C 
HETATM   12  C   UNL     1      10.308   9.440  -1.679  1.00  0.00     0.020 C 
HETATM   13  C   UNL     1      11.474  10.210  -1.059  1.00  0.00     0.002 C 
HETATM   14  C   UNL     1      11.831   9.844   0.381  1.00  0.00     0.009 C 
HETATM   15  C   UNL     1      10.630   9.621   1.276  1.00  0.00     0.103 C 
HETATM   16  C   UNL     1      10.029   8.227   1.242  1.00  0.00     0.219 C 
HETATM   17  O   UNL     1       9.806   7.617   2.288  1.00  0.00    -0.273 OA
ENDBRANCH   9  10
ENDBRANCH   8   9
ENDBRANCH   7   8
ENDBRANCH   4   7
BRANCH   1  18
HETATM   18  C   UNL     1       4.617   6.361  -3.260  1.00  0.00     0.132 A 
HETATM   19  C   UNL     1       3.862   6.835  -4.360  1.00  0.00     0.084 A 
HETATM   20  C   UNL     1       3.314   8.016  -3.917  1.00  0.00     0.076 A 
HETATM   21  C   UNL     1       2.431   9.040  -4.497  1.00  0.00     0.079 C 
HETATM   22  O   UNL     1       3.709   8.235  -2.637  1.00  0.00    -0.241 OA
HETATM   23  N   UNL     1       4.525   7.207  -2.227  1.00  0.00    -0.245 N 
ATOM     24  HN  UNL     1       4.972   7.109  -1.315  1.00  0.00     0.196 HD
ENDBRANCH   1  18
TORSDOF 5
