REMARK  4 active torsions:
REMARK  status: ('A' for Active; 'I' for Inactive)
REMARK    1  A    between atoms: C_2  and  C_5 
REMARK       I    between atoms: N_9  and  C_11 
REMARK       I    between atoms: C_11  and  N_13 
REMARK    2  A    between atoms: N_13  and  C_14 
REMARK    3  A    between atoms: C_14  and  C_15 
REMARK    4  A    between atoms: C_15  and  N_16 
ROOT
HETATM    1  C   UNL     1       2.734   0.926  -1.152  1.00  0.00     0.111 C 
HETATM    2  C   UNL     1       3.252   2.271  -0.616  1.00  0.00     0.017 C 
HETATM    3  C   UNL     1       2.124   3.174  -0.114  1.00  0.00     0.021 C 
HETATM    4  C   UNL     1       1.046   3.347  -1.180  1.00  0.00     0.127 C 
HETATM    5  N   UNL     1       0.568   2.039  -1.631  1.00  0.00    -0.334 N 
HETATM    6  C   UNL     1       1.605   1.151  -2.162  1.00  0.00     0.141 C 
HETATM    7  C   UNL     1      -0.756   1.660  -1.786  1.00  0.00     0.318 C 
HETATM    8  O   UNL     1      -1.094   0.647  -2.391  1.00  0.00    -0.247 OA
HETATM    9  N   UNL     1      -1.678   2.491  -1.194  1.00  0.00    -0.341 N 
HETATM   10  H   UNL     1      -1.350   2.889  -0.327  1.00  0.00     0.164 HD
ENDROOT
BRANCH   9  11
HETATM   11  C   UNL     1      -3.079   2.090  -1.215  1.00  0.00     0.144 C 
BRANCH  11  12
HETATM   12  C   UNL     1      -4.004   3.175  -0.679  1.00  0.00     0.149 C 
BRANCH  12  13
HETATM   13  N   UNL     1      -5.395   2.774  -0.697  1.00  0.00    -0.350 N 
HETATM   14  C   UNL     1      -6.064   2.122   0.302  1.00  0.00     0.108 A 
HETATM   15  C   UNL     1      -7.352   1.991  -0.165  1.00  0.00     0.106 A 
HETATM   16  N   UNL     1      -7.478   2.546  -1.413  1.00  0.00    -0.361 N 
HETATM   17  C   UNL     1      -6.283   3.010  -1.707  1.00  0.00     0.182 A 
ATOM     18  HN  UNL     1      -8.318   2.590  -1.989  1.00  0.00     0.166 HD
ENDBRANCH  12  13
ENDBRANCH  11  12
ENDBRANCH   9  11
BRANCH   1  19
HETATM   19  C   UNL     1       2.315  -0.048  -0.051  1.00  0.00     0.393 C 
HETATM   20  F   UNL     1       2.559   0.446   1.185  1.00  0.00    -0.171 F 
HETATM   21  F   UNL     1       3.029  -1.195  -0.158  1.00  0.00    -0.171 F 
HETATM   22  F   UNL     1       1.012  -0.387  -0.093  1.00  0.00    -0.171 F 
ENDBRANCH   1  19
TORSDOF 4
