REMARK  5 active torsions:
REMARK  status: ('A' for Active; 'I' for Inactive)
REMARK    1  A    between atoms: C_2  and  C_3 
REMARK    2  A    between atoms: N_9  and  C_10 
REMARK    3  A    between atoms: C_10  and  C_11 
REMARK    4  A    between atoms: C_11  and  N_12 
REMARK       I    between atoms: N_12  and  C_13 
REMARK    5  A    between atoms: C_13  and  C_15 
ROOT
HETATM    1  C   UNL     1       2.781  -3.858  -2.094  1.00  0.00     0.143 C 
ENDROOT
BRANCH   1   2
HETATM    2  C   UNL     1       2.242  -2.589  -1.443  1.00  0.00     0.151 C 
BRANCH   2   3
HETATM    3  N   UNL     1       2.782  -2.344  -0.124  1.00  0.00    -0.329 N 
HETATM    4  C   UNL     1       3.928  -1.670   0.221  1.00  0.00     0.098 A 
HETATM    5  N   UNL     1       4.020  -1.652   1.537  1.00  0.00    -0.288 N 
HETATM    6  N   UNL     1       2.922  -2.296   2.053  1.00  0.00    -0.295 N 
ATOM      7  HN  UNL     1       4.776  -1.232   2.078  1.00  0.00     0.188 HD
HETATM    8  C   UNL     1       2.185  -2.689   1.048  1.00  0.00     0.201 A 
ATOM      9  HN  UNL     1       2.719  -2.441   3.042  1.00  0.00     0.187 HD
BRANCH   4  10
HETATM   10  C   UNL     1       4.901  -1.067  -0.729  1.00  0.00     0.073 C 
HETATM   11  C   UNL     1       4.529   0.367  -1.080  1.00  0.00     0.013 C 
ENDBRANCH   4  10
ENDBRANCH   2   3
ENDBRANCH   1   2
BRANCH   1  12
HETATM   12  N   UNL     1       2.319  -5.101  -1.494  1.00  0.00    -0.359 N 
HETATM   13  C   UNL     1       2.783  -6.300  -1.999  1.00  0.00     0.222 C 
HETATM   14  O   UNL     1       3.370  -6.358  -3.077  1.00  0.00    -0.273 OA
HETATM   15  H   UNL     1       1.841  -5.100  -0.602  1.00  0.00     0.162 HD
BRANCH  13  16
HETATM   16  C   UNL     1       2.508  -7.531  -1.131  1.00  0.00     0.086 C 
HETATM   17  C   UNL     1       3.053  -7.363   0.323  1.00  0.00     0.023 C 
HETATM   18  C   UNL     1       4.225  -8.374   0.377  1.00  0.00     0.009 C 
HETATM   19  C   UNL     1       4.719  -8.394  -1.070  1.00  0.00     0.018 C 
HETATM   20  C   UNL     1       3.613  -9.751   0.417  1.00  0.00    -0.026 C 
HETATM   21  C   UNL     1       3.334  -8.744  -1.640  1.00  0.00     0.021 C 
HETATM   22  C   UNL     1       3.051  -9.964  -0.783  1.00  0.00    -0.025 C 
ENDBRANCH  13  16
ENDBRANCH   1  12
TORSDOF 5
