REMARK  4 active torsions:
REMARK  status: ('A' for Active; 'I' for Inactive)
REMARK    1  A    between atoms: N_4  and  C_9 
REMARK    2  A    between atoms: C_12  and  C_16 
REMARK       I    between atoms: C_16  and  N_18 
REMARK    3  A    between atoms: N_18  and  C_19 
REMARK    4  A    between atoms: C_19  and  C_20 
ROOT
HETATM    1  C   UNL     1       1.919   1.345  -3.397  1.00  0.00     0.103 A 
HETATM    2  C   UNL     1       1.039   0.818  -4.346  1.00  0.00     0.049 A 
HETATM    3  C   UNL     1       0.460   1.639  -5.309  1.00  0.00     0.022 A 
HETATM    4  C   UNL     1       0.783   2.988  -5.330  1.00  0.00     0.047 A 
HETATM    5  C   UNL     1       1.622   3.454  -4.330  1.00  0.00     0.106 A 
HETATM    6  N   UNL     1       2.183   2.669  -3.373  1.00  0.00    -0.351 N 
ATOM      7  HN  UNL     1       2.787   3.069  -2.656  1.00  0.00     0.166 HD
ENDROOT
BRANCH   4   8
HETATM    8  C   UNL     1       0.206   3.849  -6.386  1.00  0.00     0.253 C 
HETATM    9  O   UNL     1      -0.852   3.544  -6.923  1.00  0.00    -0.268 OA
HETATM   10  N   UNL     1       0.938   4.956  -6.764  1.00  0.00    -0.348 N 
HETATM   11  H   UNL     1       1.914   5.009  -6.499  1.00  0.00     0.163 HD
BRANCH  10  12
HETATM   12  C   UNL     1       0.513   5.736  -7.931  1.00  0.00     0.240 C 
BRANCH  12  13
HETATM   13  C   UNL     1       0.935   5.178  -9.299  1.00  0.00     0.403 C 
HETATM   14  F   UNL     1       1.710   4.075  -9.186  1.00  0.00    -0.169 F 
HETATM   15  F   UNL     1      -0.125   4.868 -10.074  1.00  0.00    -0.169 F 
HETATM   16  F   UNL     1       1.667   6.103  -9.970  1.00  0.00    -0.169 F 
ENDBRANCH  12  13
ENDBRANCH  10  12
ENDBRANCH   4   8
BRANCH   1  17
HETATM   17  N   UNL     1       2.466   0.517  -2.451  1.00  0.00    -0.362 N 
HETATM   18  C   UNL     1       2.908   1.019  -1.151  1.00  0.00     0.156 C 
HETATM   19  C   UNL     1       2.510  -0.030  -0.078  1.00  0.00     0.136 C 
HETATM   20  C   UNL     1       1.001  -0.033   0.183  1.00  0.00     0.041 C 
HETATM   21  O   UNL     1       2.980  -1.360  -0.408  1.00  0.00    -0.378 OA
HETATM   22  C   UNL     1       2.581  -1.794  -1.726  1.00  0.00     0.136 C 
HETATM   23  C   UNL     1       3.033  -0.786  -2.799  1.00  0.00     0.156 C 
HETATM   24  C   UNL     1       3.187  -3.166  -1.983  1.00  0.00     0.041 C 
ENDBRANCH   1  17
TORSDOF 4
