REMARK  4 active torsions:
REMARK  status: ('A' for Active; 'I' for Inactive)
REMARK    1  A    between atoms: N_4  and  C_5 
REMARK    2  A    between atoms: C_5  and  O_6 
REMARK    3  A    between atoms: O_6  and  C_7 
REMARK    4  A    between atoms: C_7  and  C_8 
ROOT
HETATM    1  C   UNL     1       1.091  -0.132  -0.787  1.00  0.00     0.056 C 
HETATM    2  C   UNL     1       2.537   0.031  -0.455  1.00  0.00     0.022 A 
HETATM    3  C   UNL     1       3.200   1.193  -0.517  1.00  0.00     0.110 A 
HETATM    4  N   UNL     1       4.541   1.301  -0.202  1.00  0.00    -0.287 N 
HETATM    5  C   UNL     1       5.293   0.196   0.165  1.00  0.00     0.331 A 
HETATM    6  O   UNL     1       6.505   0.224   0.366  1.00  0.00    -0.246 OA
HETATM    7  N   UNL     1       4.601  -0.979   0.281  1.00  0.00    -0.275 N 
HETATM    8  C   UNL     1       3.289  -1.175  -0.040  1.00  0.00     0.256 A 
HETATM    9  O   UNL     1       2.768  -2.284  -0.002  1.00  0.00    -0.267 OA
HETATM   10  H   UNL     1       5.135  -1.795   0.536  1.00  0.00     0.173 HD
ENDROOT
BRANCH   4  11
HETATM   11  C   UNL     1       5.252   2.559  -0.379  1.00  0.00     0.303 C 
BRANCH  11  12
HETATM   12  O   UNL     1       4.365   3.653  -0.189  1.00  0.00    -0.367 OA
BRANCH  12  13
HETATM   13  C   UNL     1       5.026   4.905  -0.362  1.00  0.00     0.208 C 
BRANCH  13  14
HETATM   14  C   UNL     1       4.030   6.028  -0.203  1.00  0.00    -0.035 A 
HETATM   15  C   UNL     1       2.960   5.927   0.699  1.00  0.00     0.009 A 
HETATM   16  C   UNL     1       2.050   6.974   0.845  1.00  0.00     0.001 A 
HETATM   17  C   UNL     1       2.208   8.143   0.105  1.00  0.00     0.000 A 
HETATM   18  C   UNL     1       3.281   8.268  -0.776  1.00  0.00     0.001 A 
HETATM   19  C   UNL     1       4.191   7.219  -0.926  1.00  0.00     0.009 A 
ENDBRANCH  13  14
ENDBRANCH  12  13
ENDBRANCH  11  12
ENDBRANCH   4  11
TORSDOF 4
