REMARK  5 active torsions:
REMARK  status: ('A' for Active; 'I' for Inactive)
REMARK    1  A    between atoms: C_2  and  C_3 
REMARK    2  A    between atoms: C_9  and  N_10 
REMARK       I    between atoms: N_10  and  C_11 
REMARK       I    between atoms: C_11  and  N_13 
REMARK    3  A    between atoms: N_13  and  C_14 
REMARK    4  A    between atoms: C_14  and  C_15 
REMARK    5  A    between atoms: C_15  and  C_16 
ROOT
HETATM    1  N   UNL     1       2.306  -3.175   0.784  1.00  0.00    -0.306 N 
HETATM    2  C   UNL     1       1.990  -4.506   0.978  1.00  0.00     0.320 C 
HETATM    3  O   UNL     1       2.231  -5.432   0.212  1.00  0.00    -0.247 OA
HETATM    4  N   UNL     1       1.342  -4.704   2.187  1.00  0.00    -0.343 N 
HETATM    5  H   UNL     1       2.193  -2.540   1.555  1.00  0.00     0.171 HD
HETATM    6  H   UNL     1       0.801  -3.921   2.519  1.00  0.00     0.164 HD
ENDROOT
BRANCH   1   7
HETATM    7  C   UNL     1       2.910  -2.676  -0.363  1.00  0.00     0.077 A 
HETATM    8  C   UNL     1       3.347  -1.345  -0.630  1.00  0.00     0.053 A 
HETATM    9  N   UNL     1       3.903  -1.236  -1.847  1.00  0.00    -0.301 N 
HETATM   10  N   UNL     1       3.825  -2.483  -2.346  1.00  0.00    -0.305 N 
ATOM     11  HN  UNL     1       4.293  -0.404  -2.289  1.00  0.00     0.187 HD
HETATM   12  C   UNL     1       4.361  -2.788  -3.648  1.00  0.00     0.177 C 
HETATM   13  C   UNL     1       3.220  -3.367  -1.509  1.00  0.00     0.141 A 
BRANCH   8  14
HETATM   14  C   UNL     1       3.256  -0.136   0.240  1.00  0.00     0.056 C 
HETATM   15  C   UNL     1       4.474   0.030   1.135  1.00  0.00     0.011 C 
ENDBRANCH   8  14
ENDBRANCH   1   7
BRANCH   4  16
HETATM   16  C   UNL     1       0.805  -6.026   2.485  1.00  0.00     0.127 C 
BRANCH  16  17
HETATM   17  C   UNL     1       1.855  -6.986   3.055  1.00  0.00     0.051 C 
BRANCH  17  18
HETATM   18  C   UNL     1       1.269  -8.402   3.199  1.00  0.00     0.123 C 
HETATM   19  C   UNL     1       2.218  -9.429   3.825  1.00  0.00     0.032 C 
HETATM   20  C   UNL     1       3.304  -9.910   2.870  1.00  0.00     0.004 C 
HETATM   21  C   UNL     1       2.758 -10.228   1.482  1.00  0.00     0.026 C 
HETATM   22  C   UNL     1       1.779  -9.176   0.986  1.00  0.00     0.168 C 
HETATM   23  O   UNL     1       0.765  -8.910   1.958  1.00  0.00    -0.386 OA
ENDBRANCH  17  18
ENDBRANCH  16  17
ENDBRANCH   4  16
TORSDOF 5
