REMARK  7 active torsions:
REMARK  status: ('A' for Active; 'I' for Inactive)
REMARK    1  A    between atoms: C_2  and  O_3 
REMARK    2  A    between atoms: C_2  and  C_18 
REMARK    3  A    between atoms: O_3  and  C_4 
REMARK    4  A    between atoms: C_4  and  C_5 
REMARK    5  A    between atoms: C_5  and  O_6 
REMARK    6  A    between atoms: C_5  and  C_7 
REMARK    7  A    between atoms: C_7  and  N_8 
ROOT
HETATM    1  C   UNL     1       3.014  -1.267   3.527  1.00  0.00     0.160 C 
ENDROOT
BRANCH   1   2
HETATM    2  C   UNL     1       2.503  -0.386   2.380  1.00  0.00     0.201 C 
BRANCH   2   3
HETATM    3  O   UNL     1       2.988   0.953   2.571  1.00  0.00    -0.379 OA
BRANCH   3   4
HETATM    4  C   UNL     1       2.479   1.891   1.609  1.00  0.00     0.150 C 
HETATM    5  C   UNL     1       2.932   1.549   0.187  1.00  0.00     0.045 C 
BRANCH   4   6
HETATM    6  C   UNL     1       2.985   3.289   1.937  1.00  0.00    -0.030 A 
HETATM    7  C   UNL     1       2.201   4.409   1.608  1.00  0.00     0.011 A 
HETATM    8  C   UNL     1       2.716   5.702   1.736  1.00  0.00     0.024 A 
HETATM    9  C   UNL     1       4.015   5.887   2.202  1.00  0.00     0.034 A 
HETATM   10 CL   UNL     1       4.673   7.474   2.296  1.00  0.00    -0.084 Cl
HETATM   11  C   UNL     1       4.794   4.792   2.567  1.00  0.00     0.024 A 
HETATM   12  C   UNL     1       4.281   3.498   2.436  1.00  0.00     0.011 A 
ENDBRANCH   4   6
ENDBRANCH   3   4
ENDBRANCH   2   3
ENDBRANCH   1   2
BRANCH   1  13
HETATM   13  O   UNL     1       4.448  -1.190   3.553  1.00  0.00    -0.392 OA
HETATM   14  H   UNL     1       4.670  -0.246   3.433  1.00  0.00     0.210 HD
ENDBRANCH   1  13
BRANCH   1  15
HETATM   15  C   UNL     1       2.447  -0.808   4.880  1.00  0.00     0.166 C 
BRANCH  15  16
HETATM   16  N   UNL     1       2.902  -1.660   5.975  1.00  0.00    -0.307 N 
HETATM   17  C   UNL     1       4.045  -1.342   6.657  1.00  0.00     0.186 A 
HETATM   18  N   UNL     1       4.557  -2.042   7.611  1.00  0.00    -0.355 N 
HETATM   19  C   UNL     1       3.918  -3.208   7.956  1.00  0.00     0.017 A 
ATOM     20  HN  UNL     1       5.405  -1.741   8.092  1.00  0.00     0.166 HD
HETATM   21  C   UNL     1       4.571  -3.951   9.090  1.00  0.00     0.069 C 
HETATM   22  C   UNL     1       2.811  -3.665   7.340  1.00  0.00     0.028 A 
HETATM   23  C   UNL     1       2.078  -4.931   7.653  1.00  0.00     0.056 C 
HETATM   24  C   UNL     1       2.252  -2.845   6.230  1.00  0.00     0.256 A 
HETATM   25  O   UNL     1       1.272  -3.231   5.594  1.00  0.00    -0.267 OA
ENDBRANCH  15  16
ENDBRANCH   1  15
TORSDOF 7
