REMARK  1 active torsions:
REMARK  status: ('A' for Active; 'I' for Inactive)
REMARK    1  A    between atoms: N_11  and  C_14 
ROOT
HETATM    1  C   UNL     3       1.396  -0.210  -0.693  1.00  0.00     0.090 C 
HETATM    2  C   UNL     3       2.869  -0.349  -0.489  1.00  0.00     0.093 A 
HETATM    3  N   UNL     3       3.473  -1.542  -0.332  1.00  0.00    -0.334 N 
ATOM      4  HN  UNL     3       3.052  -2.471  -0.325  1.00  0.00     0.168 HD
HETATM    5  C   UNL     3       4.767  -1.208  -0.186  1.00  0.00     0.096 A 
HETATM    6  C   UNL     3       5.866  -2.205  -0.011  1.00  0.00     0.091 C 
HETATM    7  N   UNL     3       4.936   0.127  -0.257  1.00  0.00    -0.271 N 
HETATM    8  N   UNL     3       3.750   0.679  -0.454  1.00  0.00    -0.285 N 
ATOM      9  HN  UNL     3       3.542   1.672  -0.558  1.00  0.00     0.188 HD
ENDROOT
BRANCH   7  10
HETATM   10  C   UNL     3       6.227   0.822  -0.178  1.00  0.00     0.165 C 
HETATM   11  C   UNL     3       6.760   1.071   1.220  1.00  0.00     0.298 C 
HETATM   12  N   UNL     3       7.143   2.447   0.878  1.00  0.00     0.087 N 
HETATM   13  C   UNL     3       6.259   2.336  -0.290  1.00  0.00     0.298 C 
HETATM   14  H   UNL     3       8.132   2.411   0.531  1.00  0.00     0.316 HD
ENDBRANCH   7  10
TORSDOF 1
