REMARK  6 active torsions:
REMARK  status: ('A' for Active; 'I' for Inactive)
REMARK    1  A    between atoms: N_1  and  C_9 
REMARK    2  A    between atoms: C_6  and  N_8 
REMARK    3  A    between atoms: C_14  and  C_25 
REMARK    4  A    between atoms: C_14  and  C_26 
REMARK    5  A    between atoms: C_25  and  O_27 
REMARK    6  A    between atoms: C_26  and  O_28 
ROOT
HETATM    1  N   UNL     1       1.642   1.076  -0.014  1.00  0.00    -0.322 N 
HETATM    2  C   UNL     1       0.262  -0.628   0.018  1.00  0.00     0.122 A 
HETATM    3  C   UNL     1       0.319   0.761  -0.160  1.00  0.00     0.140 A 
HETATM    4  N   UNL     1       1.536  -1.139   0.208  1.00  0.00    -0.346 N 
ATOM      5  HN  UNL     1       1.798  -2.114   0.350  1.00  0.00     0.167 HD
HETATM    6  C   UNL     1      -1.016  -1.245  -0.031  1.00  0.00     0.135 A 
HETATM    7  C   UNL     1       2.335  -0.095   0.165  1.00  0.00     0.185 A 
HETATM    8  N   UNL     1      -0.711   1.589  -0.400  1.00  0.00    -0.336 N 
ATOM      9  HN  UNL     1      -0.625   2.599  -0.514  1.00  0.00     0.168 HD
HETATM   10  N   UNL     1      -2.066  -0.408  -0.303  1.00  0.00    -0.337 N 
ATOM     11  HN  UNL     1      -3.009  -0.789  -0.380  1.00  0.00     0.168 HD
HETATM   12  C   UNL     1      -1.866   0.913  -0.470  1.00  0.00     0.183 A 
ENDROOT
BRANCH   6  13
HETATM   13  N   UNL     1      -1.324  -2.584   0.223  1.00  0.00    -0.360 N 
HETATM   14  C   UNL     1      -0.279  -3.596   0.511  1.00  0.00     0.164 C 
HETATM   15  C   UNL     1      -0.935  -4.880   1.130  1.00  0.00     0.098 C 
HETATM   16  O   UNL     1      -2.033  -5.340   0.296  1.00  0.00    -0.375 OA
HETATM   17  C   UNL     1       0.058  -6.065   1.191  1.00  0.00     0.207 C 
HETATM   18  C   UNL     1      -1.400  -4.636   2.581  1.00  0.00     0.044 C 
HETATM   19  C   UNL     1      -3.031  -4.346   0.087  1.00  0.00     0.189 C 
HETATM   20  C   UNL     1      -2.448  -3.105  -0.582  1.00  0.00     0.151 C 
HETATM   21  O   UNL     1      -0.564  -7.250   1.726  1.00  0.00    -0.388 OA
HETATM   22  C   UNL     1      -1.100  -7.084   3.037  1.00  0.00     0.167 C 
HETATM   23  C   UNL     1      -2.049  -5.897   3.145  1.00  0.00     0.029 C 
ENDBRANCH   6  13
BRANCH   1  24
HETATM   24  C   UNL     1       2.304   2.356   0.038  1.00  0.00     0.094 C 
HETATM   25  C   UNL     1       1.721   3.349   1.092  1.00  0.00     0.039 C 
HETATM   26  C   UNL     1       2.160   4.508   0.124  1.00  0.00     0.006 C 
HETATM   27  C   UNL     1       1.898   3.443  -1.006  1.00  0.00     0.039 C 
BRANCH  26  28
HETATM   28  C   UNL     1       1.232   5.723   0.085  1.00  0.00     0.175 C 
BRANCH  28  29
HETATM   29  O   UNL     1       1.278   6.399   1.340  1.00  0.00    -0.400 OA
HETATM   30  H   UNL     1       0.686   5.917   1.946  1.00  0.00     0.209 HD
ENDBRANCH  28  29
ENDBRANCH  26  28
BRANCH  26  31
HETATM   31  C   UNL     1       3.631   4.956   0.218  1.00  0.00     0.175 C 
BRANCH  31  32
HETATM   32  O   UNL     1       3.919   5.432   1.527  1.00  0.00    -0.400 OA
HETATM   33  H   UNL     1       3.310   6.182   1.691  1.00  0.00     0.209 HD
ENDBRANCH  31  32
ENDBRANCH  26  31
ENDBRANCH   1  24
TORSDOF 6
