REMARK  3 active torsions:
REMARK  status: ('A' for Active; 'I' for Inactive)
REMARK    1  A    between atoms: C_6  and  N_7 
REMARK    2  A    between atoms: N_7  and  C_8 
REMARK    3  A    between atoms: C_8  and  C_9 
ROOT
HETATM    1  N   UNL     1       1.345  -0.116   1.310  1.00  0.00    -0.190 NA
HETATM    2  C   UNL     1       2.476  -0.079   1.034  1.00  0.00     0.117 C 
HETATM    3  C   UNL     1       3.860   0.019   0.670  1.00  0.00     0.113 A 
HETATM    4  C   UNL     1       4.334   1.118  -0.035  1.00  0.00     0.043 A 
HETATM    5  C   UNL     1       5.684   1.159  -0.370  1.00  0.00     0.028 A 
HETATM    6  C   UNL     1       6.540   0.103  -0.038  1.00  0.00     0.024 A 
HETATM    7  C   UNL     1       5.963  -0.931   0.704  1.00  0.00     0.112 A 
HETATM    8  N   UNL     1       4.652  -1.011   1.048  1.00  0.00    -0.356 N 
ATOM      9  HN  UNL     1       4.282  -1.808   1.566  1.00  0.00     0.166 HD
ENDROOT
BRANCH   6  10
HETATM   10  N   UNL     1       7.903   0.216  -0.327  1.00  0.00    -0.286 NA
HETATM   11  H   UNL     1       8.089   0.893  -1.065  1.00  0.00     0.128 HD
BRANCH  10  12
HETATM   12  C   UNL     1       8.666  -1.006  -0.576  1.00  0.00     0.159 C 
BRANCH  12  13
HETATM   13  C   UNL     1      10.079  -0.624  -0.965  1.00  0.00     0.081 C 
HETATM   14  C   UNL     1      11.145  -1.117  -0.325  1.00  0.00     0.168 C 
HETATM   15  O   UNL     1      12.450  -0.889  -0.629  1.00  0.00    -0.358 OA
HETATM   16  C   UNL     1      12.677   0.055  -1.666  1.00  0.00     0.201 C 
HETATM   17  C   UNL     1      11.487   0.459  -2.539  1.00  0.00     0.202 C 
HETATM   18  O   UNL     1      10.173   0.241  -2.031  1.00  0.00    -0.350 OA
ENDBRANCH  12  13
ENDBRANCH  10  12
ENDBRANCH   6  10
TORSDOF 3
