REMARK  3 active torsions:
REMARK  status: ('A' for Active; 'I' for Inactive)
REMARK    1  A    between atoms: O_6  and  C_7 
REMARK    2  A    between atoms: C_7  and  C_8 
REMARK    3  A    between atoms: C_13  and  C_16 
ROOT
HETATM    1  C   UNL     3       4.202  -0.239  -1.740  1.00  0.00     0.105 A 
HETATM    2  N   UNL     3       4.774   0.987  -1.716  1.00  0.00    -0.354 N 
ATOM      3  HN  UNL     3       4.192   1.814  -1.852  1.00  0.00     0.166 HD
HETATM    4  C   UNL     3       6.106   1.137  -1.514  1.00  0.00     0.091 A 
HETATM    5  C   UNL     3       6.916   0.016  -1.322  1.00  0.00     0.042 A 
HETATM    6  C   UNL     3       6.326  -1.262  -1.334  1.00  0.00     0.017 A 
HETATM    7  N   UNL     3       4.975  -1.347  -1.538  1.00  0.00    -0.347 N 
ATOM      8  HN  UNL     3       4.532  -2.266  -1.539  1.00  0.00     0.167 HD
ENDROOT
BRANCH   6   9
HETATM    9  C   UNL     3       7.094  -2.553  -1.029  1.00  0.00     0.064 C 
HETATM   10  C   UNL     3       8.626  -2.447  -0.778  1.00  0.00     0.014 C 
HETATM   11  C   UNL     3       9.437  -2.293  -2.081  1.00  0.00     0.031 C 
HETATM   12  C   UNL     3       9.055  -3.405  -3.060  1.00  0.00     0.269 C 
HETATM   13  N   UNL     3       7.611  -3.344  -3.332  1.00  0.00     0.084 N 
HETATM   14  C   UNL     3       6.858  -3.638  -2.101  1.00  0.00     0.280 C 
HETATM   15  H   UNL     3       7.384  -4.081  -4.040  1.00  0.00     0.315 HD
ENDBRANCH   6   9
BRANCH   1  16
HETATM   16  C   UNL     3       2.721  -0.351  -1.969  1.00  0.00     0.243 C 
BRANCH  16  17
HETATM   17  O   UNL     3       2.410   0.252  -3.209  1.00  0.00    -0.389 OA
HETATM   18  C   UNL     3       1.012   0.315  -3.412  1.00  0.00     0.202 C 
ENDBRANCH  16  17
ENDBRANCH   1  16
TORSDOF 3
