REMARK  4 active torsions:
REMARK  status: ('A' for Active; 'I' for Inactive)
REMARK    1  A    between atoms: C_6  and  N_7 
REMARK       I    between atoms: N_7  and  C_8 
REMARK       I    between atoms: C_8  and  N_10 
REMARK    2  A    between atoms: N_10  and  C_11 
REMARK    3  A    between atoms: C_16  and  O_17 
REMARK    4  A    between atoms: O_17  and  C_18 
ROOT
HETATM    1  N   UNL     1       7.514  -4.360  -0.038  1.00  0.00    -0.304 N 
HETATM    2  C   UNL     1       6.647  -5.420   0.020  1.00  0.00     0.321 C 
HETATM    3  O   UNL     1       7.003  -6.541   0.355  1.00  0.00    -0.247 OA
HETATM    4  N   UNL     1       5.363  -5.120  -0.322  1.00  0.00    -0.336 N 
HETATM    5  H   UNL     1       7.177  -3.458   0.283  1.00  0.00     0.171 HD
HETATM    6  H   UNL     1       5.175  -4.203  -0.702  1.00  0.00     0.164 HD
ENDROOT
BRANCH   4   7
HETATM    7  C   UNL     1       4.248  -6.079  -0.269  1.00  0.00     0.115 C 
HETATM    8  C   UNL     1       3.820  -6.340   1.187  1.00  0.00     0.028 C 
HETATM    9  C   UNL     1       4.574  -7.473   1.878  1.00  0.00     0.002 C 
HETATM   10  C   UNL     1       4.542  -8.754   1.058  1.00  0.00     0.003 C 
HETATM   11  C   UNL     1       5.057  -8.570  -0.360  1.00  0.00     0.034 C 
HETATM   12  C   UNL     1       4.355  -7.415  -1.091  1.00  0.00     0.144 C 
BRANCH  12  13
HETATM   13  O   UNL     1       4.870  -7.179  -2.414  1.00  0.00    -0.379 OA
BRANCH  13  14
HETATM   14  C   UNL     1       4.874  -8.316  -3.290  1.00  0.00     0.122 C 
HETATM   15  C   UNL     1       5.439  -7.920  -4.654  1.00  0.00     0.032 C 
HETATM   16  C   UNL     1       4.445  -8.409  -5.711  1.00  0.00     0.002 C 
HETATM   17  C   UNL     1       3.534  -9.392  -4.996  1.00  0.00     0.002 C 
HETATM   18  C   UNL     1       3.478  -8.874  -3.571  1.00  0.00     0.032 C 
ENDBRANCH  13  14
ENDBRANCH  12  13
ENDBRANCH   4   7
BRANCH   1  19
HETATM   19  C   UNL     1       8.892  -4.528  -0.003  1.00  0.00     0.105 A 
HETATM   20  C   UNL     1       9.511  -5.632  -0.454  1.00  0.00     0.037 A 
HETATM   21  C   UNL     1      10.934  -5.786  -0.401  1.00  0.00     0.020 A 
HETATM   22  C   UNL     1      11.695  -4.773   0.017  1.00  0.00     0.094 A 
HETATM   23  N   UNL     1      11.131  -3.587   0.451  1.00  0.00    -0.327 N 
HETATM   24  C   UNL     1      12.000  -2.498   0.858  1.00  0.00     0.159 C 
HETATM   25  C   UNL     1       9.744  -3.406   0.548  1.00  0.00     0.274 A 
HETATM   26  O   UNL     1       9.208  -2.408   1.032  1.00  0.00    -0.266 OA
ENDBRANCH   1  19
TORSDOF 4
