REMARK  5 active torsions:
REMARK  status: ('A' for Active; 'I' for Inactive)
REMARK    1  A    between atoms: N_2  and  C_4 
REMARK    2  A    between atoms: C_4  and  C_5 
REMARK    3  A    between atoms: C_5  and  N_6 
REMARK    4  A    between atoms: C_9  and  N_10 
REMARK       I    between atoms: N_10  and  C_11 
REMARK       I    between atoms: C_11  and  N_13 
REMARK    5  A    between atoms: N_13  and  C_14 
ROOT
HETATM    1  N   UNL     1       6.886   4.700  -2.894  1.00  0.00    -0.294 N 
HETATM    2  C   UNL     1       7.637   3.967  -3.784  1.00  0.00     0.322 C 
HETATM    3  O   UNL     1       8.413   4.528  -4.552  1.00  0.00    -0.247 OA
HETATM    4  N   UNL     1       7.479   2.618  -3.724  1.00  0.00    -0.338 N 
HETATM    5  H   UNL     1       7.036   5.696  -2.934  1.00  0.00     0.172 HD
HETATM    6  H   UNL     1       6.750   2.312  -3.081  1.00  0.00     0.164 HD
ENDROOT
BRANCH   1   7
HETATM    7  C   UNL     1       5.986   4.205  -1.977  1.00  0.00     0.125 A 
HETATM    8  C   UNL     1       5.231   4.959  -1.050  1.00  0.00     0.069 A 
HETATM    9  C   UNL     1       4.469   4.035  -0.365  1.00  0.00     0.114 A 
HETATM   10  N   UNL     1       4.797   2.823  -0.893  1.00  0.00    -0.300 N 
HETATM   11  N   UNL     1       5.713   2.903  -1.860  1.00  0.00    -0.283 N 
ATOM     12  HN  UNL     1       6.118   2.135  -2.395  1.00  0.00     0.188 HD
BRANCH  10  13
HETATM   13  C   UNL     1       4.253   1.518  -0.567  1.00  0.00     0.178 C 
BRANCH  13  14
HETATM   14  C   UNL     1       5.083   0.810   0.510  1.00  0.00     0.293 C 
BRANCH  14  15
HETATM   15  N   UNL     1       4.627  -0.562   0.825  1.00  0.00     0.081 N 
HETATM   16  C   UNL     1       5.486  -1.145   1.861  1.00  0.00     0.309 C 
HETATM   17  C   UNL     1       3.230  -0.605   1.256  1.00  0.00     0.309 C 
ENDBRANCH  14  15
ENDBRANCH  13  14
ENDBRANCH  10  13
ENDBRANCH   1   7
BRANCH   4  18
HETATM   18  C   UNL     1       8.179   1.630  -4.501  1.00  0.00     0.090 C 
HETATM   19  C   UNL     1       7.735   0.192  -4.137  1.00  0.00     0.030 C 
HETATM   20  C   UNL     1       9.051  -0.478  -3.702  1.00  0.00    -0.012 C 
HETATM   21  C   UNL     1       9.501   0.110  -2.353  1.00  0.00     0.005 C 
HETATM   22  C   UNL     1      10.043   0.153  -4.678  1.00  0.00     0.011 C 
HETATM   23  C   UNL     1      10.007   1.508  -2.736  1.00  0.00     0.007 C 
HETATM   24  C   UNL     1       9.704   1.582  -4.245  1.00  0.00     0.009 C 
ENDBRANCH   4  18
TORSDOF 5
