REMARK  5 active torsions:
REMARK  status: ('A' for Active; 'I' for Inactive)
REMARK    1  A    between atoms: C_2  and  C_3 
REMARK    2  A    between atoms: C_3  and  N_4 
REMARK    3  A    between atoms: C_3  and  C_17 
REMARK       I    between atoms: N_4  and  C_5 
REMARK    4  A    between atoms: C_5  and  C_7 
REMARK    5  A    between atoms: C_7  and  C_8 
ROOT
HETATM    1  N   UNL     1       2.273  -0.463  -2.390  1.00  0.00    -0.356 N 
HETATM    2  C   UNL     1       1.872  -1.412  -3.309  1.00  0.00     0.222 C 
HETATM    3  O   UNL     1       1.919  -2.618  -3.083  1.00  0.00    -0.273 OA
HETATM    4  H   UNL     1       2.157   0.517  -2.613  1.00  0.00     0.162 HD
ENDROOT
BRANCH   2   5
HETATM    5  C   UNL     1       1.367  -0.880  -4.636  1.00  0.00     0.145 C 
BRANCH   5   6
HETATM    6  C   UNL     1      -0.124  -0.852  -4.688  1.00  0.00    -0.002 A 
HETATM    7  C   UNL     1      -1.035  -1.940  -4.560  1.00  0.00     0.030 A 
HETATM    8  C   UNL     1      -0.774  -3.388  -4.344  1.00  0.00     0.070 C 
HETATM    9  N   UNL     1      -2.305  -1.532  -4.666  1.00  0.00    -0.303 N 
HETATM   10  N   UNL     1      -2.218  -0.211  -4.873  1.00  0.00    -0.300 N 
ATOM     11  HN  UNL     1      -3.150  -2.100  -4.603  1.00  0.00     0.186 HD
HETATM   12  C   UNL     1      -3.438   0.545  -5.035  1.00  0.00     0.177 C 
HETATM   13  C   UNL     1      -0.931   0.256  -4.910  1.00  0.00     0.033 A 
HETATM   14  C   UNL     1      -0.568   1.674  -5.158  1.00  0.00     0.070 C 
ENDBRANCH   5   6
ENDBRANCH   2   5
BRANCH   1  15
HETATM   15  C   UNL     1       2.813  -0.834  -1.076  1.00  0.00     0.088 C 
BRANCH  15  16
HETATM   16  C   UNL     1       2.337   0.186  -0.016  1.00  0.00     0.021 C 
HETATM   17  C   UNL     1       0.823   0.247   0.138  1.00  0.00     0.007 C 
ENDBRANCH  15  16
BRANCH  15  18
HETATM   18  C   UNL     1       4.377  -0.937  -1.114  1.00  0.00     0.008 C 
HETATM   19  C   UNL     1       4.924  -1.921  -2.172  1.00  0.00     0.007 C 
HETATM   20  C   UNL     1       4.659  -3.388  -1.829  1.00  0.00     0.000 C 
HETATM   21  C   UNL     1       5.148  -3.763  -0.436  1.00  0.00     0.000 C 
HETATM   22  C   UNL     1       4.668  -2.779   0.627  1.00  0.00     0.000 C 
HETATM   23  C   UNL     1       5.003  -1.339   0.240  1.00  0.00     0.007 C 
ENDBRANCH  15  18
ENDBRANCH   1  15
TORSDOF 5
