REMARK  5 active torsions:
REMARK  status: ('A' for Active; 'I' for Inactive)
REMARK    1  A    between atoms: C_2  and  C_3 
REMARK    2  A    between atoms: C_2  and  N_10 
REMARK    3  A    between atoms: C_3  and  N_4 
REMARK    4  A    between atoms: N_10  and  C_11 
REMARK    5  A    between atoms: C_11  and  C_12 
REMARK       I    between atoms: C_12  and  N_14 
ROOT
HETATM    1  N   UNL     1       3.083  -1.264   0.842  1.00  0.00     0.098 N 
HETATM    2  H   UNL     1       2.789  -2.134   0.395  1.00  0.00     0.317 HD
ENDROOT
BRANCH   1   3
HETATM    3  C   UNL     1       2.522  -0.094   0.135  1.00  0.00     0.236 C 
HETATM    4  C   UNL     1       2.922  -0.106  -1.347  1.00  0.00     0.044 C 
BRANCH   3   5
HETATM    5  C   UNL     1       0.980  -0.077   0.227  1.00  0.00     0.183 C 
BRANCH   5   6
HETATM    6  N   UNL     1       0.466   0.140   1.565  1.00  0.00    -0.302 N 
HETATM    7  C   UNL     1       0.062  -0.822   2.449  1.00  0.00     0.111 A 
HETATM    8  C   UNL     1      -0.477  -0.153   3.521  1.00  0.00     0.037 A 
HETATM    9  C   UNL     1      -0.364   1.208   3.186  1.00  0.00     0.108 A 
HETATM   10  N   UNL     1       0.207   1.394   1.993  1.00  0.00    -0.310 N 
ATOM     11  HN  UNL     1       0.401   2.275   1.518  1.00  0.00     0.186 HD
ENDBRANCH   5   6
ENDBRANCH   3   5
ENDBRANCH   1   3
BRANCH   1  12
HETATM   12  C   UNL     1       4.555  -1.246   0.888  1.00  0.00     0.372 C 
BRANCH  12  13
HETATM   13  C   UNL     1       5.080  -2.432   1.699  1.00  0.00     0.247 C 
HETATM   14  O   UNL     1       5.665  -3.363   1.138  1.00  0.00    -0.271 OA
HETATM   15  N   UNL     1       4.913  -2.392   3.064  1.00  0.00    -0.351 N 
HETATM   16  C   UNL     1       5.475  -3.411   3.924  1.00  0.00     0.126 C 
HETATM   17  C   UNL     1       4.097  -1.466   3.825  1.00  0.00     0.126 C 
HETATM   18  C   UNL     1       5.344  -2.857   5.339  1.00  0.00     0.021 C 
HETATM   19  C   UNL     1       4.792  -1.439   5.172  1.00  0.00     0.021 C 
ENDBRANCH  12  13
ENDBRANCH   1  12
TORSDOF 5
