REMARK  10 active torsions:
REMARK  status: ('A' for Active; 'I' for Inactive)
REMARK    1  A    between atoms: N_1  and  C1*_2 
REMARK    2  A    between atoms: C2*_7  and  O2*_23 
REMARK    3  A    between atoms: C3*_10  and  O3*_25 
REMARK    4  A    between atoms: C4*_11  and  C5*_29 
REMARK    5  A    between atoms: C_12  and  N_18 
REMARK    6  A    between atoms: C_17  and  O_22 
REMARK    7  A    between atoms: N_18  and  C_26 
REMARK    8  A    between atoms: O_22  and  C_31 
REMARK    9  A    between atoms: C_26  and  C_27 
REMARK   10  A    between atoms: C5*_29  and  O5*_30 
ROOT
HETATM    1  N   UNL     1       2.919   2.279  -1.344  1.00  0.00    -0.297 N 
HETATM    2  C   UNL     1       3.409   1.053  -1.728  1.00  0.00     0.142 A 
HETATM    3  C   UNL     1       4.282   1.330  -2.771  1.00  0.00     0.122 A 
HETATM    4  N   UNL     1       4.268   2.673  -3.080  1.00  0.00    -0.346 N 
ATOM      5  HN  UNL     1       4.810   3.152  -3.799  1.00  0.00     0.167 HD
HETATM    6  C   UNL     1       3.401   3.200  -2.243  1.00  0.00     0.188 A 
HETATM    7  C   UNL     1       5.027   0.261  -3.307  1.00  0.00     0.133 A 
HETATM    8  N   UNL     1       3.139  -0.158  -1.217  1.00  0.00    -0.336 N 
ATOM      9  HN  UNL     1       2.473  -0.332  -0.464  1.00  0.00     0.168 HD
HETATM   10  N   UNL     1       4.808  -0.974  -2.790  1.00  0.00    -0.337 N 
ATOM     11  HN  UNL     1       5.343  -1.778  -3.118  1.00  0.00     0.168 HD
HETATM   12  C   UNL     1       3.866  -1.116  -1.831  1.00  0.00     0.183 A 
ENDROOT
BRANCH   7  13
HETATM   13  N   UNL     1       5.921   0.450  -4.346  1.00  0.00    -0.370 N 
HETATM   14  H   UNL     1       5.915   1.375  -4.759  1.00  0.00     0.161 HD
BRANCH  13  15
HETATM   15  C   UNL     1       7.129  -0.344  -4.424  1.00  0.00     0.160 C 
BRANCH  15  16
HETATM   16  C   UNL     1       8.285   0.467  -4.980  1.00  0.00    -0.035 A 
HETATM   17  C   UNL     1       9.208  -0.132  -5.847  1.00  0.00     0.065 A 
HETATM   18  C   UNL     1      10.260   0.624  -6.346  1.00  0.00     0.142 A 
HETATM   19  N   UNL     1      10.461   1.922  -6.040  1.00  0.00    -0.347 N 
HETATM   20  C   UNL     1       9.585   2.477  -5.175  1.00  0.00     0.090 A 
ATOM     21  HN  UNL     1      11.233   2.456  -6.440  1.00  0.00     0.167 HD
HETATM   22  C   UNL     1       8.511   1.799  -4.616  1.00  0.00     0.026 A 
BRANCH  18  23
HETATM   23  O   UNL     1      11.121  -0.032  -7.202  1.00  0.00    -0.331 OA
BRANCH  23  24
HETATM   24  C   UNL     1      12.304   0.693  -7.564  1.00  0.00     0.122 C 
HETATM   25  C   UNL     1      13.329   0.630  -6.433  1.00  0.00     0.040 C 
HETATM   26  C   UNL     1      12.875   0.006  -8.806  1.00  0.00     0.040 C 
ENDBRANCH  23  24
ENDBRANCH  18  23
ENDBRANCH  15  16
ENDBRANCH  13  15
ENDBRANCH   7  13
BRANCH   1  27
HETATM   27  C1* UNL     1       2.040   2.636  -0.242  1.00  0.00     0.262 C 
HETATM   28  C2* UNL     1       1.975   1.720   0.999  1.00  0.00     0.198 C 
HETATM   29  C3* UNL     1       2.484   2.574   2.164  1.00  0.00     0.182 C 
HETATM   30  C4* UNL     1       3.137   3.782   1.507  1.00  0.00     0.179 C 
HETATM   31  O4* UNL     1       2.470   3.937   0.240  1.00  0.00    -0.353 OA
BRANCH  28  32
HETATM   32  O2* UNL     1       0.618   1.309   1.249  1.00  0.00    -0.388 OA
HETATM   33  H2* UNL     1       0.355   1.755   2.083  1.00  0.00     0.210 HD
ENDBRANCH  28  32
BRANCH  29  34
HETATM   34  O3* UNL     1       1.359   2.948   2.983  1.00  0.00    -0.390 OA
HETATM   35  H3* UNL     1       1.172   3.897   2.859  1.00  0.00     0.210 HD
ENDBRANCH  29  34
BRANCH  30  36
HETATM   36  C5* UNL     1       4.649   3.609   1.320  1.00  0.00     0.198 C 
BRANCH  36  37
HETATM   37  O5* UNL     1       5.212   4.765   0.708  1.00  0.00    -0.398 OA
HETATM   38  H5* UNL     1       4.926   4.771  -0.224  1.00  0.00     0.209 HD
ENDBRANCH  36  37
ENDBRANCH  30  36
ENDBRANCH   1  27
TORSDOF 10
