REMARK  5 active torsions:
REMARK  status: ('A' for Active; 'I' for Inactive)
REMARK    1  A    between atoms: C_2  and  N_4 
REMARK    2  A    between atoms: N_3  and  C_19 
REMARK    3  A    between atoms: C_17  and  C_19 
REMARK    4  A    between atoms: C_17  and  C_27 
REMARK    5  A    between atoms: C_27  and  O_28 
ROOT
HETATM    1  C   UNL     1       0.312  -0.856  -0.029  1.00  0.00     0.122 A 
HETATM    2  C   UNL     1      -0.911  -1.583  -0.025  1.00  0.00     0.135 A 
HETATM    3  N   UNL     1       1.537   0.960  -0.013  1.00  0.00    -0.326 N 
HETATM    4  C   UNL     1       0.240   0.533  -0.076  1.00  0.00     0.140 A 
HETATM    5  N   UNL     1       1.639  -1.253   0.015  1.00  0.00    -0.346 N 
ATOM      6  HN  UNL     1       1.997  -2.208   0.023  1.00  0.00     0.167 HD
HETATM    7  C   UNL     1       2.340  -0.143   0.044  1.00  0.00     0.185 A 
HETATM    8  N   UNL     1      -2.046  -0.821  -0.117  1.00  0.00    -0.337 N 
ATOM      9  HN  UNL     1      -2.959  -1.275  -0.146  1.00  0.00     0.168 HD
HETATM   10  N   UNL     1      -0.864   1.298  -0.152  1.00  0.00    -0.336 N 
ATOM     11  HN  UNL     1      -0.866   2.317  -0.190  1.00  0.00     0.168 HD
HETATM   12  C   UNL     1      -1.966   0.525  -0.170  1.00  0.00     0.183 A 
ENDROOT
BRANCH   2  13
HETATM   13  N   UNL     1      -1.041  -2.971   0.117  1.00  0.00    -0.358 N 
HETATM   14  C   UNL     1       0.134  -3.828  -0.088  1.00  0.00     0.116 C 
HETATM   15  C   UNL     1      -0.046  -5.251   0.476  1.00  0.00     0.102 C 
HETATM   16  C   UNL     1       0.488  -4.084  -1.556  1.00  0.00     0.148 C 
HETATM   17  C   UNL     1       0.972  -6.020  -0.342  1.00  0.00     0.224 C 
HETATM   18  C   UNL     1      -1.431  -5.849   0.242  1.00  0.00     0.018 C 
HETATM   19  O   UNL     1       1.441  -7.111  -0.076  1.00  0.00    -0.273 OA
HETATM   20  N   UNL     1       1.216  -5.320  -1.508  1.00  0.00    -0.359 N 
HETATM   21  H   UNL     1       1.809  -5.698  -2.235  1.00  0.00     0.162 HD
HETATM   22  C   UNL     1      -2.539  -4.862   0.570  1.00  0.00     0.021 C 
HETATM   23  C   UNL     1      -2.362  -3.534  -0.161  1.00  0.00     0.125 C 
ENDBRANCH   2  13
BRANCH   3  24
HETATM   24  C   UNL     1       1.996   2.336   0.078  1.00  0.00     0.147 C 
BRANCH  24  25
HETATM   25  C   UNL     1       2.219   3.004  -1.271  1.00  0.00     0.040 C 
HETATM   26  C   UNL     1       3.329   2.416  -2.165  1.00  0.00     0.183 C 
HETATM   27  O   UNL     1       3.998   3.697  -2.239  1.00  0.00    -0.389 OA
HETATM   28  C   UNL     1       3.173   4.212  -1.165  1.00  0.00     0.183 C 
BRANCH  25  29
HETATM   29  C   UNL     1       0.950   3.290  -2.064  1.00  0.00     0.179 C 
BRANCH  29  30
HETATM   30  O   UNL     1       0.035   4.026  -1.261  1.00  0.00    -0.400 OA
HETATM   31  H   UNL     1      -0.524   3.371  -0.794  1.00  0.00     0.209 HD
ENDBRANCH  29  30
ENDBRANCH  25  29
ENDBRANCH  24  25
ENDBRANCH   3  24
TORSDOF 5
