REMARK  5 active torsions:
REMARK  status: ('A' for Active; 'I' for Inactive)
REMARK    1  A    between atoms: N_5  and  C_6 
REMARK    2  A    between atoms: C_6  and  C_7 
REMARK    3  A    between atoms: C_7  and  O_8 
REMARK    4  A    between atoms: C_7  and  C_9 
REMARK    5  A    between atoms: C_9  and  N_10 
ROOT
HETATM    1  N   UNL     1       7.187   1.211  -4.707  1.00  0.00    -0.339 N 
HETATM    2  C   UNL     1       7.499   2.514  -4.432  1.00  0.00     0.184 A 
HETATM    3  N   UNL     1       7.860   3.166  -5.511  1.00  0.00    -0.350 N 
ATOM      4  HN  UNL     1       8.154   4.141  -5.576  1.00  0.00     0.166 HD
HETATM    5  C   UNL     1       7.758   2.258  -6.532  1.00  0.00     0.063 A 
HETATM    6  C   UNL     1       7.977   2.441  -7.904  1.00  0.00     0.077 A 
HETATM    7  C   UNL     1       7.826   1.340  -8.746  1.00  0.00     0.157 A 
HETATM    8  F   UNL     1       8.027   1.496 -10.062  1.00  0.00    -0.203 F 
HETATM    9  C   UNL     1       7.469   0.092  -8.247  1.00  0.00     0.157 A 
HETATM   10  F   UNL     1       7.342  -0.949  -9.083  1.00  0.00    -0.203 F 
HETATM   11  C   UNL     1       7.226  -0.113  -6.886  1.00  0.00     0.077 A 
HETATM   12  C   UNL     1       7.378   1.002  -6.052  1.00  0.00     0.065 A 
ENDROOT
BRANCH   1  13
HETATM   13  C   UNL     1       6.640   0.272  -3.743  1.00  0.00     0.163 C 
BRANCH  13  14
HETATM   14  C   UNL     1       5.107   0.323  -3.732  1.00  0.00     0.164 C 
BRANCH  14  15
HETATM   15  C   UNL     1       4.525  -0.765  -2.795  1.00  0.00     0.305 C 
BRANCH  15  16
HETATM   16  N   UNL     1       3.050  -0.770  -2.709  1.00  0.00     0.091 N 
HETATM   17  C   UNL     1       2.562  -1.724  -1.697  1.00  0.00     0.273 C 
HETATM   18  C   UNL     1       2.741  -3.195  -2.093  1.00  0.00     0.034 C 
HETATM   19  C   UNL     1       2.150  -3.516  -3.468  1.00  0.00    -0.015 C 
HETATM   20  C   UNL     1       0.619  -3.654  -3.402  1.00  0.00     0.010 C 
HETATM   21  C   UNL     1       2.568  -2.464  -4.504  1.00  0.00     0.034 C 
HETATM   22  C   UNL     1       2.375  -1.033  -3.992  1.00  0.00     0.273 C 
ENDBRANCH  15  16
ENDBRANCH  14  15
BRANCH  14  23
HETATM   23  O   UNL     1       4.699   1.630  -3.305  1.00  0.00    -0.392 OA
HETATM   24  H   UNL     1       4.353   1.563  -2.397  1.00  0.00     0.210 HD
ENDBRANCH  14  23
ENDBRANCH  13  14
ENDBRANCH   1  13
TORSDOF 5
