REMARK  6 active torsions:
REMARK  status: ('A' for Active; 'I' for Inactive)
REMARK    1  A    between atoms: C_2  and  C_3 
REMARK    2  A    between atoms: C_3  and  C_4 
REMARK    3  A    between atoms: C_4  and  C_5 
REMARK    4  A    between atoms: N_14  and  C_15 
REMARK    5  A    between atoms: C_15  and  C_16 
REMARK    6  A    between atoms: C_16  and  O_17 
ROOT
HETATM    1  C   UNL     1       4.961  -0.521  -2.791  1.00  0.00     0.084 C 
HETATM    2  N   UNL     1       5.263   0.445  -3.636  1.00  0.00    -0.344 N 
ATOM      3  HN  UNL     1       5.181   1.449  -3.474  1.00  0.00     0.167 HD
HETATM    4  C   UNL     1       5.709  -0.170  -4.773  1.00  0.00     0.060 A 
HETATM    5  C   UNL     1       6.157   0.401  -5.974  1.00  0.00     0.032 A 
HETATM    6  C   UNL     1       6.594  -0.443  -7.001  1.00  0.00     0.002 A 
HETATM    7  C   UNL     1       6.617  -1.826  -6.821  1.00  0.00     0.002 A 
HETATM    8  C   UNL     1       6.177  -2.411  -5.627  1.00  0.00     0.032 A 
HETATM    9  C   UNL     1       5.687  -1.555  -4.631  1.00  0.00     0.062 A 
HETATM   10  N   UNL     1       5.089  -1.756  -3.403  1.00  0.00    -0.332 N 
ENDROOT
BRANCH  10  11
HETATM   11  C   UNL     1       4.663  -3.040  -2.865  1.00  0.00     0.168 C 
BRANCH  11  12
HETATM   12  C   UNL     1       3.415  -3.681  -3.546  1.00  0.00     0.078 C 
HETATM   13  C   UNL     1       2.237  -2.732  -3.823  1.00  0.00     0.066 C 
HETATM   14  C   UNL     1       1.448  -2.390  -2.570  1.00  0.00     0.170 C 
HETATM   15  O   UNL     1       1.024  -3.569  -1.893  1.00  0.00    -0.391 OA
HETATM   16  C   UNL     1       2.108  -4.400  -1.490  1.00  0.00     0.170 C 
HETATM   17  C   UNL     1       2.908  -4.864  -2.700  1.00  0.00     0.066 C 
BRANCH  12  18
HETATM   18  O   UNL     1       3.829  -4.257  -4.798  1.00  0.00    -0.388 OA
HETATM   19  H   UNL     1       3.867  -3.541  -5.459  1.00  0.00     0.210 HD
ENDBRANCH  12  18
ENDBRANCH  11  12
ENDBRANCH  10  11
BRANCH   1  20
HETATM   20  C   UNL     1       4.518  -0.282  -1.383  1.00  0.00     0.076 C 
BRANCH  20  21
HETATM   21  C   UNL     1       5.692  -0.267  -0.402  1.00  0.00     0.007 C 
BRANCH  21  22
HETATM   22  C   UNL     1       5.191  -0.047   1.028  1.00  0.00    -0.004 C 
HETATM   23  C   UNL     1       6.331  -0.014   2.031  1.00  0.00     0.005 C 
ENDBRANCH  21  22
ENDBRANCH  20  21
ENDBRANCH   1  20
TORSDOF 6
