REMARK  3 active torsions:
REMARK  status: ('A' for Active; 'I' for Inactive)
REMARK    1  A    between atoms: C_4  and  N_5 
REMARK       I    between atoms: N_5  and  C_6 
REMARK       I    between atoms: C_6  and  N_8 
REMARK    2  A    between atoms: N_8  and  C_9 
REMARK    3  A    between atoms: N_12  and  C_15 
ROOT
HETATM    1  N   UNL     1       6.896   1.956  -1.989  1.00  0.00    -0.293 N 
HETATM    2  C   UNL     1       7.391   3.218  -1.562  1.00  0.00     0.322 C 
HETATM    3  O   UNL     1       8.265   3.822  -2.154  1.00  0.00    -0.247 OA
HETATM    4  N   UNL     1       6.755   3.618  -0.425  1.00  0.00    -0.338 N 
HETATM    5  H   UNL     1       6.253   1.466  -1.389  1.00  0.00     0.172 HD
HETATM    6  H   UNL     1       5.940   3.128  -0.092  1.00  0.00     0.164 HD
ENDROOT
BRANCH   1   7
HETATM    7  C   UNL     1       7.287   1.332  -3.175  1.00  0.00     0.127 A 
HETATM    8  C   UNL     1       8.121   1.825  -4.157  1.00  0.00     0.076 A 
HETATM    9  C   UNL     1       8.203   0.814  -5.141  1.00  0.00     0.025 A 
HETATM   10  C   UNL     1       8.985   0.831  -6.400  1.00  0.00     0.070 C 
HETATM   11  N   UNL     1       7.456  -0.243  -4.814  1.00  0.00    -0.302 N 
HETATM   12  N   UNL     1       6.906   0.090  -3.631  1.00  0.00    -0.281 N 
ATOM     13  HN  UNL     1       7.330  -1.107  -5.341  1.00  0.00     0.186 HD
HETATM   14  C   UNL     1       6.024  -0.870  -3.014  1.00  0.00     0.179 C 
ENDBRANCH   1   7
BRANCH   4  15
HETATM   15  C   UNL     1       7.069   4.908   0.195  1.00  0.00     0.089 C 
HETATM   16  C   UNL     1       6.524   6.085  -0.626  1.00  0.00     0.055 C 
HETATM   17  C   UNL     1       6.709   7.418   0.101  1.00  0.00     0.275 C 
HETATM   18  N   UNL     1       6.197   7.420   1.473  1.00  0.00     0.093 N 
HETATM   19  C   UNL     1       6.768   6.324   2.262  1.00  0.00     0.275 C 
HETATM   20  C   UNL     1       6.533   4.953   1.627  1.00  0.00     0.055 C 
BRANCH  18  21
HETATM   21  C   UNL     1       4.731   7.514   1.589  1.00  0.00     0.223 A 
HETATM   22  C   UNL     1       3.990   8.761   1.194  1.00  0.00     0.038 A 
HETATM   23  C   UNL     1       4.182   8.441   2.645  1.00  0.00     0.038 A 
ENDBRANCH  18  21
ENDBRANCH   4  15
TORSDOF 3
