REMARK  7 active torsions:
REMARK  status: ('A' for Active; 'I' for Inactive)
REMARK    1  A    between atoms: C_2  and  N_4 
REMARK       I    between atoms: N_4  and  C_5 
REMARK    2  A    between atoms: C_5  and  C_7 
REMARK    3  A    between atoms: C_7  and  C_8 
REMARK    4  A    between atoms: C_8  and  N_9 
REMARK    5  A    between atoms: N_9  and  C_10 
REMARK    6  A    between atoms: C_10  and  C_11 
REMARK    7  A    between atoms: C_11  and  N_12 
ROOT
HETATM    1  N   UNL     1       6.876   2.184  -3.882  1.00  0.00     0.085 N 
HETATM    2  H   UNL     1       6.557   3.153  -3.840  1.00  0.00     0.315 HD
ENDROOT
BRANCH   1   3
HETATM    3  C   UNL     1       6.406   1.478  -2.677  1.00  0.00     0.278 C 
BRANCH   3   4
HETATM    4  C   UNL     1       4.881   1.454  -2.588  1.00  0.00     0.132 C 
BRANCH   4   5
HETATM    5  C   UNL     1       4.445   0.730  -1.329  1.00  0.00     0.219 C 
HETATM    6  N   UNL     1       3.077   0.591  -1.214  1.00  0.00    -0.357 N 
HETATM    7  H   UNL     1       2.478   1.105  -1.849  1.00  0.00     0.162 HD
HETATM    8  O   UNL     1       5.231   0.307  -0.488  1.00  0.00    -0.274 OA
BRANCH   6   9
HETATM    9  C   UNL     1       2.478  -0.033  -0.039  1.00  0.00     0.076 C 
HETATM   10  C   UNL     1       2.296   0.985   1.085  1.00  0.00     0.032 C 
HETATM   11  C   UNL     1       1.149  -0.685  -0.402  1.00  0.00     0.032 C 
ENDBRANCH   6   9
ENDBRANCH   4   5
ENDBRANCH   3   4
ENDBRANCH   1   3
BRANCH   1  12
HETATM   12  C   UNL     1       8.354   2.174  -3.904  1.00  0.00     0.291 C 
BRANCH  12  13
HETATM   13  C   UNL     1       8.919   2.896  -5.129  1.00  0.00     0.178 C 
BRANCH  13  14
HETATM   14  N   UNL     1      10.371   2.878  -5.148  1.00  0.00    -0.302 N 
HETATM   15  C   UNL     1      11.175   2.326  -6.104  1.00  0.00     0.118 A 
HETATM   16  C   UNL     1      12.475   2.557  -5.703  1.00  0.00    -0.028 A 
HETATM   17  C   UNL     1      13.732   2.166  -6.379  1.00  0.00     0.051 C 
HETATM   18  C   UNL     1      12.337   3.264  -4.488  1.00  0.00     0.115 A 
HETATM   19  N   UNL     1      11.061   3.474  -4.157  1.00  0.00    -0.310 N 
ATOM     20  HN  UNL     1      10.695   3.970  -3.344  1.00  0.00     0.186 HD
ENDBRANCH  13  14
ENDBRANCH  12  13
ENDBRANCH   1  12
TORSDOF 7
