REMARK  4 active torsions:
REMARK  status: ('A' for Active; 'I' for Inactive)
REMARK    1  A    between atoms: O_1  and  C_2 
REMARK    2  A    between atoms: C_2  and  C_3 
REMARK    3  A    between atoms: C_2  and  C_14 
REMARK    4  A    between atoms: C_3  and  N_4 
ROOT
HETATM    1  N   UNL     1       2.464  -2.414   0.216  1.00  0.00    -0.271 N 
HETATM    2  N   UNL     1       1.144  -2.660   0.372  1.00  0.00    -0.019 NA
HETATM    3  N   UNL     1       1.016  -3.633   1.262  1.00  0.00    -0.282 N 
ATOM      4  HN  UNL     1       0.137  -4.024   1.601  1.00  0.00     0.184 HD
HETATM    5  C   UNL     1       2.268  -4.021   1.646  1.00  0.00     0.074 A 
HETATM    6  C   UNL     1       2.668  -5.012   2.553  1.00  0.00     0.033 A 
HETATM    7  C   UNL     1       4.036  -5.217   2.759  1.00  0.00     0.002 A 
HETATM    8  C   UNL     1       4.982  -4.450   2.074  1.00  0.00     0.002 A 
HETATM    9  C   UNL     1       4.601  -3.448   1.168  1.00  0.00     0.033 A 
HETATM   10  C   UNL     1       3.227  -3.259   0.977  1.00  0.00     0.076 A 
ENDROOT
BRANCH   1  11
HETATM   11  C   UNL     1       2.858  -1.335  -0.678  1.00  0.00     0.183 C 
BRANCH  11  12
HETATM   12  C   UNL     1       2.308   0.022  -0.196  1.00  0.00     0.170 C 
BRANCH  12  13
HETATM   13  O   UNL     1       0.876   0.040  -0.169  1.00  0.00    -0.389 OA
HETATM   14  H   UNL     1       0.567  -0.802   0.222  1.00  0.00     0.210 HD
ENDBRANCH  12  13
BRANCH  12  15
HETATM   15  C   UNL     1       2.666   1.222  -1.054  1.00  0.00    -0.028 A 
HETATM   16  C   UNL     1       2.893   2.464  -0.434  1.00  0.00     0.010 A 
HETATM   17  C   UNL     1       3.040   3.630  -1.190  1.00  0.00     0.001 A 
HETATM   18  C   UNL     1       2.964   3.575  -2.578  1.00  0.00     0.000 A 
HETATM   19  C   UNL     1       2.756   2.352  -3.211  1.00  0.00     0.001 A 
HETATM   20  C   UNL     1       2.606   1.184  -2.456  1.00  0.00     0.010 A 
ENDBRANCH  12  15
ENDBRANCH  11  12
ENDBRANCH   1  11
TORSDOF 4
