REMARK  5 active torsions:
REMARK  status: ('A' for Active; 'I' for Inactive)
REMARK    1  A    between atoms: C_2  and  C_4 
REMARK    2  A    between atoms: C_4  and  C_5 
REMARK       I    between atoms: C_5  and  N_7 
REMARK    3  A    between atoms: C_10  and  N_13 
REMARK       I    between atoms: N_13  and  C_14 
REMARK       I    between atoms: C_14  and  N_16 
REMARK    4  A    between atoms: N_16  and  C_17 
REMARK    5  A    between atoms: C_20  and  N_24 
ROOT
HETATM    1  N   UNL     1       7.218  -0.176  -5.881  1.00  0.00    -0.338 N 
HETATM    2  C   UNL     1       7.699  -0.787  -7.016  1.00  0.00     0.321 C 
HETATM    3  O   UNL     1       6.980  -1.252  -7.888  1.00  0.00    -0.247 OA
HETATM    4  N   UNL     1       9.076  -0.878  -6.990  1.00  0.00    -0.308 N 
HETATM    5  H   UNL     1       7.809   0.536  -5.473  1.00  0.00     0.164 HD
HETATM    6  H   UNL     1       9.451  -1.044  -6.067  1.00  0.00     0.170 HD
ENDROOT
BRANCH   1   7
HETATM    7  C   UNL     1       5.778  -0.151  -5.612  1.00  0.00     0.089 C 
HETATM    8  C   UNL     1       5.343   1.117  -4.872  1.00  0.00     0.045 C 
HETATM    9  C   UNL     1       5.731   1.112  -3.397  1.00  0.00     0.127 C 
HETATM   10  N   UNL     1       5.300  -0.122  -2.756  1.00  0.00    -0.352 N 
HETATM   11  C   UNL     1       4.678  -0.063  -1.516  1.00  0.00     0.220 C 
HETATM   12  C   UNL     1       5.784  -1.351  -3.385  1.00  0.00     0.127 C 
HETATM   13  O   UNL     1       4.632   0.976  -0.851  1.00  0.00    -0.273 OA
HETATM   14  C   UNL     1       5.358  -1.415  -4.846  1.00  0.00     0.045 C 
BRANCH  11  15
HETATM   15  C   UNL     1       4.025  -1.349  -1.034  1.00  0.00     0.106 C 
BRANCH  15  16
HETATM   16  C   UNL     1       2.874  -1.137  -0.040  1.00  0.00    -0.014 C 
HETATM   17  C   UNL     1       1.743  -0.312  -0.664  1.00  0.00     0.010 C 
HETATM   18  C   UNL     1       2.329  -2.500   0.394  1.00  0.00     0.010 C 
ENDBRANCH  15  16
ENDBRANCH  11  15
ENDBRANCH   1   7
BRANCH   4  19
HETATM   19  C   UNL     1       9.796  -1.419  -8.073  1.00  0.00     0.051 A 
HETATM   20  C   UNL     1      10.814  -2.327  -7.831  1.00  0.00     0.035 A 
HETATM   21  C   UNL     1      11.513  -2.876  -8.912  1.00  0.00     0.050 A 
HETATM   22  C   UNL     1      11.263  -2.456 -10.223  1.00  0.00     0.102 A 
HETATM   23  N   UNL     1      10.277  -1.557 -10.446  1.00  0.00    -0.350 N 
HETATM   24  C   UNL     1       9.555  -1.086  -9.395  1.00  0.00     0.119 A 
ATOM     25  HN  UNL     1      10.077  -1.236 -11.393  1.00  0.00     0.166 HD
BRANCH  22  26
HETATM   26  N   UNL     1      11.941  -2.999 -11.314  1.00  0.00    -0.376 N 
HETATM   27  C   UNL     1      11.668  -2.384 -12.614  1.00  0.00     0.150 C 
HETATM   28  C   UNL     1      13.306  -3.493 -11.170  1.00  0.00     0.150 C 
ENDBRANCH  22  26
ENDBRANCH   4  19
TORSDOF 5
