REMARK  7 active torsions:
REMARK  status: ('A' for Active; 'I' for Inactive)
REMARK    1  A    between atoms: C_2  and  N_3 
REMARK       I    between atoms: N_3  and  C_4 
REMARK    2  A    between atoms: C_4  and  C_6 
REMARK    3  A    between atoms: C_6  and  C_7 
REMARK    4  A    between atoms: C_7  and  N_8 
REMARK    5  A    between atoms: N_8  and  C_9 
REMARK    6  A    between atoms: C_9  and  C_11 
REMARK    7  A    between atoms: C_11  and  N_12 
ROOT
HETATM    1  N   UNL     1       6.847  -3.140  -2.966  1.00  0.00     0.089 N 
HETATM    2  H   UNL     1       6.560  -2.951  -3.928  1.00  0.00     0.316 HD
ENDROOT
BRANCH   1   3
HETATM    3  C   UNL     1       6.302  -2.117  -2.074  1.00  0.00     0.279 C 
BRANCH   3   4
HETATM    4  C   UNL     1       4.775  -2.099  -2.070  1.00  0.00     0.132 C 
BRANCH   4   5
HETATM    5  C   UNL     1       4.311  -1.002  -1.131  1.00  0.00     0.219 C 
HETATM    6  N   UNL     1       2.946  -0.850  -1.076  1.00  0.00    -0.361 N 
HETATM    7  H   UNL     1       2.349  -1.525  -1.537  1.00  0.00     0.162 HD
HETATM    8  O   UNL     1       5.084  -0.303  -0.480  1.00  0.00    -0.274 OA
BRANCH   6   9
HETATM    9  C   UNL     1       2.346   0.143  -0.208  1.00  0.00     0.118 C 
HETATM   10  C   UNL     1       2.157  -0.383   1.203  1.00  0.00     0.026 C 
ENDBRANCH   6   9
ENDBRANCH   4   5
ENDBRANCH   3   4
ENDBRANCH   1   3
BRANCH   1  11
HETATM   11  C   UNL     1       8.325  -3.251  -2.919  1.00  0.00     0.236 C 
HETATM   12  C   UNL     1       9.002  -1.972  -3.434  1.00  0.00     0.044 C 
BRANCH  11  13
HETATM   13  C   UNL     1       8.921  -3.641  -1.547  1.00  0.00     0.183 C 
BRANCH  13  14
HETATM   14  N   UNL     1       8.463  -4.928  -1.059  1.00  0.00    -0.302 N 
HETATM   15  C   UNL     1       7.680  -5.158   0.037  1.00  0.00     0.111 A 
HETATM   16  C   UNL     1       7.542  -6.521   0.128  1.00  0.00     0.037 A 
HETATM   17  C   UNL     1       8.299  -7.028  -0.945  1.00  0.00     0.108 A 
HETATM   18  N   UNL     1       8.893  -6.062  -1.650  1.00  0.00    -0.310 N 
ATOM     19  HN  UNL     1       9.523  -6.159  -2.447  1.00  0.00     0.186 HD
ENDBRANCH  13  14
ENDBRANCH  11  13
ENDBRANCH   1  11
TORSDOF 7
