REMARK  5 active torsions:
REMARK  status: ('A' for Active; 'I' for Inactive)
REMARK    1  A    between atoms: C_2  and  N_3 
REMARK    2  A    between atoms: C_2  and  C_16 
REMARK       I    between atoms: N_3  and  C_4 
REMARK       I    between atoms: C_4  and  N_6 
REMARK    3  A    between atoms: N_6  and  C_7 
REMARK    4  A    between atoms: C_7  and  C_8 
REMARK    5  A    between atoms: C_8  and  C_9 
ROOT
HETATM    1  N   UNL     1       2.982  -0.690  -1.132  1.00  0.00    -0.336 N 
HETATM    2  C   UNL     1       2.654  -1.987  -1.413  1.00  0.00     0.316 C 
HETATM    3  O   UNL     1       2.028  -2.714  -0.653  1.00  0.00    -0.247 OA
HETATM    4  N   UNL     1       3.164  -2.411  -2.607  1.00  0.00    -0.343 N 
HETATM    5  H   UNL     1       3.249  -0.080  -1.892  1.00  0.00     0.164 HD
HETATM    6  H   UNL     1       3.514  -1.730  -3.263  1.00  0.00     0.164 HD
ENDROOT
BRANCH   1   7
HETATM    7  C   UNL     1       2.536  -0.040   0.102  1.00  0.00     0.111 C 
HETATM    8  C   UNL     1       1.133   0.534  -0.103  1.00  0.00     0.035 C 
BRANCH   7   9
HETATM    9  C   UNL     1       3.577   1.003   0.556  1.00  0.00     0.143 C 
HETATM   10  C   UNL     1       3.334   1.594   1.938  1.00  0.00     0.036 C 
HETATM   11  C   UNL     1       3.893   2.999   1.852  1.00  0.00     0.029 C 
HETATM   12  C   UNL     1       4.292   3.174   0.400  1.00  0.00     0.168 C 
HETATM   13  O   UNL     1       3.630   2.135  -0.331  1.00  0.00    -0.384 OA
ENDBRANCH   7   9
ENDBRANCH   1   7
BRANCH   4  14
HETATM   14  C   UNL     1       2.984  -3.779  -3.071  1.00  0.00     0.131 C 
BRANCH  14  15
HETATM   15  C   UNL     1       1.641  -4.022  -3.759  1.00  0.00     0.084 C 
BRANCH  15  16
HETATM   16  C   UNL     1       1.530  -3.242  -5.034  1.00  0.00     0.052 A 
HETATM   17  N   UNL     1       2.365  -3.356  -6.046  1.00  0.00    -0.357 N 
HETATM   18  C   UNL     1       2.002  -2.490  -7.065  1.00  0.00     0.012 A 
ATOM     19  HN  UNL     1       3.163  -3.990  -6.075  1.00  0.00     0.166 HD
HETATM   20  C   UNL     1       2.819  -2.453  -8.305  1.00  0.00     0.068 C 
HETATM   21  C   UNL     1       0.882  -1.727  -6.801  1.00  0.00     0.076 A 
HETATM   22  S   UNL     1       0.265  -2.099  -5.249  1.00  0.00    -0.087 SA
ENDBRANCH  15  16
ENDBRANCH  14  15
ENDBRANCH   4  14
TORSDOF 5
