REMARK  5 active torsions:
REMARK  status: ('A' for Active; 'I' for Inactive)
REMARK    1  A    between atoms: C_2  and  S_3 
REMARK    2  A    between atoms: S_3  and  C_4 
REMARK    3  A    between atoms: C_8  and  N_9 
REMARK       I    between atoms: N_9  and  C_10 
REMARK       I    between atoms: C_10  and  N_12 
REMARK    4  A    between atoms: N_12  and  C_13 
REMARK    5  A    between atoms: C_15  and  C_16 
ROOT
HETATM    1  N   UNL     1       4.344   0.403   3.403  1.00  0.00    -0.337 N 
HETATM    2  C   UNL     1       3.284   1.241   3.431  1.00  0.00     0.322 C 
HETATM    3  O   UNL     1       2.840   1.939   2.541  1.00  0.00    -0.247 OA
HETATM    4  N   UNL     1       2.587   1.172   4.667  1.00  0.00    -0.293 N 
HETATM    5  H   UNL     1       4.671   0.009   4.274  1.00  0.00     0.164 HD
HETATM    6  H   UNL     1       2.755   0.402   5.292  1.00  0.00     0.172 HD
ENDROOT
BRANCH   1   7
HETATM    7  C   UNL     1       5.202   0.147   2.237  1.00  0.00     0.100 C 
HETATM    8  C   UNL     1       6.631   0.721   2.367  1.00  0.00     0.070 C 
HETATM    9  C   UNL     1       6.528   2.155   1.834  1.00  0.00     0.017 C 
HETATM   10  C   UNL     1       5.311   2.180   0.909  1.00  0.00     0.003 C 
HETATM   11  C   UNL     1       4.759   0.755   0.901  1.00  0.00     0.026 C 
BRANCH   8  12
HETATM   12  S   UNL     1       7.355   0.695   4.042  1.00  0.00    -0.163 SA
BRANCH  12  13
HETATM   13  C   UNL     1       7.595  -1.096   4.257  1.00  0.00     0.070 C 
HETATM   14  C   UNL     1       8.323  -1.343   5.567  1.00  0.00     0.016 C 
ENDBRANCH  12  13
ENDBRANCH   8  12
ENDBRANCH   1   7
BRANCH   4  15
HETATM   15  C   UNL     1       1.406   1.890   4.794  1.00  0.00     0.127 A 
HETATM   16  C   UNL     1       0.215   1.337   5.197  1.00  0.00     0.076 A 
HETATM   17  C   UNL     1      -0.746   2.358   5.002  1.00  0.00     0.029 A 
HETATM   18  N   UNL     1      -0.178   3.505   4.611  1.00  0.00    -0.301 N 
HETATM   19  N   UNL     1       1.130   3.204   4.485  1.00  0.00    -0.281 N 
ATOM     20  HN  UNL     1      -0.632   4.403   4.446  1.00  0.00     0.187 HD
HETATM   21  C   UNL     1       2.068   4.275   4.238  1.00  0.00     0.179 C 
BRANCH  17  22
HETATM   22  C   UNL     1      -2.227   2.273   5.163  1.00  0.00     0.054 C 
HETATM   23  C   UNL     1      -2.936   1.915   3.864  1.00  0.00     0.011 C 
ENDBRANCH  17  22
ENDBRANCH   4  15
TORSDOF 5
