REMARK  7 active torsions:
REMARK  status: ('A' for Active; 'I' for Inactive)
REMARK    1  A    between atoms: C_2  and  N_3 
REMARK    2  A    between atoms: C_2  and  C_14 
REMARK    3  A    between atoms: N_3  and  C_4 
REMARK    4  A    between atoms: C_4  and  C_6 
REMARK       I    between atoms: C_6  and  N_8 
REMARK    5  A    between atoms: N_8  and  C_9 
REMARK    6  A    between atoms: C_9  and  C_10 
REMARK    7  A    between atoms: C_14  and  N_16 
ROOT
HETATM    1  N   UNL     1       2.792   1.339   0.340  1.00  0.00     0.103 N 
HETATM    2  H   UNL     1       2.412   1.919  -0.417  1.00  0.00     0.317 HD
ENDROOT
BRANCH   1   3
HETATM    3  C   UNL     1       2.444  -0.076   0.048  1.00  0.00     0.241 C 
HETATM    4  C   UNL     1       0.921  -0.266  -0.020  1.00  0.00     0.045 C 
BRANCH   3   5
HETATM    5  C   UNL     1       3.184  -1.155   0.908  1.00  0.00     0.136 C 
HETATM    6  C   UNL     1       2.916  -2.601   0.475  1.00  0.00     0.036 C 
BRANCH   5   7
HETATM    7  N   UNL     1       4.629  -0.932   0.986  1.00  0.00    -0.297 N 
HETATM    8  C   UNL     1       5.481  -0.483   0.007  1.00  0.00     0.112 A 
HETATM    9  C   UNL     1       6.712  -0.339   0.602  1.00  0.00     0.037 A 
HETATM   10  C   UNL     1       6.522  -0.771   1.925  1.00  0.00     0.108 A 
HETATM   11  N   UNL     1       5.265  -1.159   2.158  1.00  0.00    -0.310 N 
ATOM     12  HN  UNL     1       4.875  -1.539   3.021  1.00  0.00     0.186 HD
ENDBRANCH   5   7
ENDBRANCH   3   5
ENDBRANCH   1   3
BRANCH   1  13
HETATM   13  C   UNL     1       2.322   1.939   1.609  1.00  0.00     0.308 C 
HETATM   14  C   UNL     1       2.827   1.299   2.903  1.00  0.00     0.053 C 
BRANCH  13  15
HETATM   15  C   UNL     1       2.794   3.412   1.633  1.00  0.00     0.251 C 
HETATM   16  O   UNL     1       2.019   4.364   1.642  1.00  0.00    -0.271 OA
HETATM   17  N   UNL     1       4.162   3.566   1.678  1.00  0.00    -0.351 N 
HETATM   18  H   UNL     1       4.713   2.772   1.355  1.00  0.00     0.162 HD
BRANCH  17  19
HETATM   19  C   UNL     1       4.766   4.893   1.747  1.00  0.00     0.240 C 
BRANCH  19  20
HETATM   20  C   UNL     1       4.870   5.660   0.420  1.00  0.00     0.403 C 
HETATM   21  F   UNL     1       4.433   4.932  -0.631  1.00  0.00    -0.169 F 
HETATM   22  F   UNL     1       4.178   6.814   0.454  1.00  0.00    -0.169 F 
HETATM   23  F   UNL     1       6.167   5.972   0.173  1.00  0.00    -0.169 F 
ENDBRANCH  19  20
ENDBRANCH  17  19
ENDBRANCH  13  15
ENDBRANCH   1  13
TORSDOF 7
