REMARK  3 active torsions:
REMARK  status: ('A' for Active; 'I' for Inactive)
REMARK    1  A    between atoms: C_2  and  C_3 
REMARK    2  A    between atoms: C_6  and  N_7 
REMARK       I    between atoms: N_7  and  C_8 
REMARK       I    between atoms: C_8  and  N_10 
REMARK    3  A    between atoms: N_10  and  C_11 
ROOT
HETATM    1  N   UNL     1       2.683  -1.341  -5.495  1.00  0.00    -0.289 N 
HETATM    2  C   UNL     1       3.500  -2.349  -5.065  1.00  0.00     0.322 C 
HETATM    3  O   UNL     1       3.515  -2.858  -3.953  1.00  0.00    -0.247 OA
HETATM    4  N   UNL     1       4.383  -2.772  -6.059  1.00  0.00    -0.337 N 
HETATM    5  H   UNL     1       2.685  -1.048  -6.454  1.00  0.00     0.172 HD
HETATM    6  H   UNL     1       4.534  -2.164  -6.849  1.00  0.00     0.164 HD
ENDROOT
BRANCH   1   7
HETATM    7  C   UNL     1       1.847  -0.669  -4.640  1.00  0.00     0.152 A 
HETATM    8  S   UNL     1       1.005   0.629  -5.369  1.00  0.00    -0.064 SA
HETATM    9  C   UNL     1       0.323   1.020  -3.843  1.00  0.00     0.078 A 
HETATM   10  C   UNL     1       0.750   0.115  -2.889  1.00  0.00     0.017 A 
HETATM   11  N   UNL     1       1.632  -0.847  -3.363  1.00  0.00    -0.340 N 
ATOM     12  HN  UNL     1       2.051  -1.585  -2.797  1.00  0.00     0.168 HD
BRANCH  10  13
HETATM   13  C   UNL     1       0.372   0.092  -1.443  1.00  0.00     0.053 C 
HETATM   14  C   UNL     1       1.398   0.798  -0.570  1.00  0.00     0.011 C 
ENDBRANCH  10  13
ENDBRANCH   1   7
BRANCH   4  15
HETATM   15  C   UNL     1       5.435  -3.717  -5.686  1.00  0.00     0.104 C 
HETATM   16  C   UNL     1       6.654  -3.691  -6.613  1.00  0.00     0.036 C 
HETATM   17  C   UNL     1       6.497  -4.488  -7.902  1.00  0.00     0.105 C 
HETATM   18  C   UNL     1       5.708  -5.770  -7.828  1.00  0.00     0.219 C 
HETATM   19  O   UNL     1       5.794  -6.613  -8.722  1.00  0.00    -0.273 OA
HETATM   20  N   UNL     1       4.727  -5.801  -6.856  1.00  0.00    -0.355 N 
HETATM   21  C   UNL     1       3.418  -6.284  -7.239  1.00  0.00     0.152 C 
HETATM   22  C   UNL     1       4.910  -5.150  -5.564  1.00  0.00     0.150 C 
ENDBRANCH   4  15
TORSDOF 3
