REMARK  5 active torsions:
REMARK  status: ('A' for Active; 'I' for Inactive)
REMARK    1  A    between atoms: C_8  and  C_9 
REMARK    2  A    between atoms: C_9  and  C_10 
REMARK       I    between atoms: C_10  and  N_12 
REMARK    3  A    between atoms: N_12  and  C_13 
REMARK    4  A    between atoms: C_13  and  C_14 
REMARK    5  A    between atoms: C_14  and  C_15 
ROOT
HETATM    1  C   UNL     1       1.749   3.114   0.138  1.00  0.00     0.222 C 
HETATM    2  O   UNL     1       0.912   2.218   0.236  1.00  0.00    -0.273 OA
HETATM    3  N   UNL     1       1.400   4.449   0.091  1.00  0.00    -0.361 N 
HETATM    4  H   UNL     1       2.100   5.169  -0.041  1.00  0.00     0.162 HD
ENDROOT
BRANCH   1   5
HETATM    5  C   UNL     1       3.231   2.809   0.041  1.00  0.00     0.146 C 
BRANCH   5   6
HETATM    6  C   UNL     1       3.935   2.637   1.347  1.00  0.00     0.006 A 
HETATM    7  C   UNL     1       3.469   2.206   2.627  1.00  0.00     0.038 A 
HETATM    8  C   UNL     1       2.109   1.806   3.069  1.00  0.00     0.071 C 
HETATM    9  N   UNL     1       4.466   2.166   3.520  1.00  0.00    -0.265 N 
HETATM   10  O   UNL     1       5.603   2.539   2.842  1.00  0.00    -0.242 OA
ATOM     11  HN  UNL     1       4.396   1.910   4.505  1.00  0.00     0.194 HD
HETATM   12  C   UNL     1       5.292   2.809   1.551  1.00  0.00     0.081 A 
HETATM   13  C   UNL     1       6.420   3.190   0.679  1.00  0.00     0.079 C 
ENDBRANCH   5   6
ENDBRANCH   1   5
BRANCH   3  14
HETATM   14  C   UNL     1      -0.006   4.812   0.071  1.00  0.00     0.127 C 
BRANCH  14  15
HETATM   15  C   UNL     1      -0.289   6.318   0.027  1.00  0.00     0.053 C 
BRANCH  15  16
HETATM   16  C   UNL     1       0.169   7.048  -1.224  1.00  0.00    -0.082 A 
HETATM   17  C   UNL     1       0.953   8.132  -1.141  1.00  0.00    -0.024 A 
HETATM   18  C   UNL     1       1.385   8.967  -2.298  1.00  0.00     0.027 A 
HETATM   19  C   UNL     1       0.939   8.523  -3.685  1.00  0.00     0.004 A 
HETATM   20  C   UNL     1       0.046   7.292  -3.805  1.00  0.00     0.005 A 
HETATM   21  C   UNL     1      -0.379   6.558  -2.533  1.00  0.00     0.034 A 
ENDBRANCH  15  16
ENDBRANCH  14  15
ENDBRANCH   3  14
TORSDOF 5
