REMARK  8 active torsions:
REMARK  status: ('A' for Active; 'I' for Inactive)
REMARK    1  A    between atoms: C_2  and  C_3 
REMARK    2  A    between atoms: C_6  and  C_7 
REMARK    3  A    between atoms: C_7  and  C_8 
REMARK       I    between atoms: C_8  and  N_10 
REMARK    4  A    between atoms: N_10  and  C_11 
REMARK    5  A    between atoms: C_11  and  C_13 
REMARK    6  A    between atoms: C_11  and  C_15 
REMARK    7  A    between atoms: C_15  and  C_16 
REMARK    8  A    between atoms: C_16  and  O_18 
ROOT
HETATM    1  C   UNL     1       3.052   5.060   3.339  1.00  0.00     0.223 C 
HETATM    2  O   UNL     1       3.204   4.136   4.135  1.00  0.00    -0.273 OA
HETATM    3  N   UNL     1       3.402   6.379   3.599  1.00  0.00    -0.351 N 
HETATM    4  H   UNL     1       3.490   6.969   2.778  1.00  0.00     0.163 HD
ENDROOT
BRANCH   1   5
HETATM    5  C   UNL     1       2.424   4.818   1.982  1.00  0.00     0.160 C 
BRANCH   5   6
HETATM    6  C   UNL     1       3.434   4.418   0.962  1.00  0.00     0.025 A 
HETATM    7  N   UNL     1       3.951   5.390   0.114  1.00  0.00    -0.356 N 
HETATM    8  C   UNL     1       4.761   4.837  -0.766  1.00  0.00     0.050 A 
ATOM      9  HN  UNL     1       3.735   6.386   0.165  1.00  0.00     0.166 HD
HETATM   10  S   UNL     1       4.975   3.139  -0.610  1.00  0.00    -0.087 SA
HETATM   11  C   UNL     1       3.892   3.137   0.715  1.00  0.00     0.077 A 
BRANCH   8  12
HETATM   12  C   UNL     1       5.452   5.587  -1.863  1.00  0.00     0.060 C 
HETATM   13  C   UNL     1       6.821   6.085  -1.431  1.00  0.00     0.012 C 
ENDBRANCH   8  12
ENDBRANCH   5   6
ENDBRANCH   1   5
BRANCH   3  14
HETATM   14  C   UNL     1       4.066   6.834   4.863  1.00  0.00     0.038 C 
HETATM   15  C   UNL     1       3.132   6.493   6.047  1.00  0.00     0.039 C 
BRANCH  14  16
HETATM   16  C   UNL     1       5.436   6.113   5.012  1.00  0.00     0.026 C 
HETATM   17  C   UNL     1       6.436   6.429   3.902  1.00  0.00     0.007 C 
ENDBRANCH  14  16
BRANCH  14  18
HETATM   18  C   UNL     1       4.233   8.382   4.803  1.00  0.00     0.140 C 
BRANCH  18  19
HETATM   19  C   UNL     1       4.926   9.022   5.996  1.00  0.00     0.141 C 
HETATM   20  O   UNL     1       5.345   8.452   6.988  1.00  0.00    -0.650 OA
BRANCH  19  21
HETATM   21  O   UNL     1       5.046  10.364   5.863  1.00  0.00    -0.776 OA
HETATM   22  H   UNL     1       4.674  10.722   5.036  1.00  0.00     0.167 HD
ENDBRANCH  19  21
ENDBRANCH  18  19
ENDBRANCH  14  18
ENDBRANCH   3  14
TORSDOF 8
