REMARK  3 active torsions:
REMARK  status: ('A' for Active; 'I' for Inactive)
REMARK    1  A    between atoms: N_2  and  C_4 
REMARK    2  A    between atoms: C_7  and  N_8 
REMARK       I    between atoms: N_8  and  C_9 
REMARK       I    between atoms: C_9  and  N_11 
REMARK    3  A    between atoms: N_11  and  C_12 
ROOT
HETATM    1  N   UNL     1       4.895  -3.771  -3.533  1.00  0.00    -0.308 N 
HETATM    2  C   UNL     1       4.267  -4.995  -3.590  1.00  0.00     0.321 C 
HETATM    3  O   UNL     1       3.383  -5.384  -2.831  1.00  0.00    -0.247 OA
HETATM    4  N   UNL     1       4.712  -5.803  -4.609  1.00  0.00    -0.337 N 
HETATM    5  H   UNL     1       5.393  -3.455  -4.351  1.00  0.00     0.170 HD
HETATM    6  H   UNL     1       5.214  -5.364  -5.367  1.00  0.00     0.164 HD
ENDROOT
BRANCH   1   7
HETATM    7  C   UNL     1       4.715  -2.847  -2.477  1.00  0.00     0.051 A 
HETATM    8  C   UNL     1       4.181  -3.209  -1.250  1.00  0.00     0.035 A 
HETATM    9  C   UNL     1       4.042  -2.265  -0.236  1.00  0.00     0.050 A 
HETATM   10  C   UNL     1       4.443  -0.948  -0.437  1.00  0.00     0.102 A 
HETATM   11  N   UNL     1       4.982  -0.582  -1.625  1.00  0.00    -0.350 N 
HETATM   12  C   UNL     1       5.104  -1.520  -2.606  1.00  0.00     0.119 A 
ATOM     13  HN  UNL     1       5.291   0.377  -1.782  1.00  0.00     0.166 HD
BRANCH  10  14
HETATM   14  N   UNL     1       4.347  -0.017   0.607  1.00  0.00    -0.376 N 
HETATM   15  C   UNL     1       4.814   1.322   0.277  1.00  0.00     0.150 C 
HETATM   16  C   UNL     1       3.178  -0.110   1.474  1.00  0.00     0.150 C 
ENDBRANCH  10  14
ENDBRANCH   1   7
BRANCH   4  17
HETATM   17  C   UNL     1       3.972  -7.057  -4.853  1.00  0.00     0.103 C 
HETATM   18  C   UNL     1       4.061  -8.154  -3.754  1.00  0.00     0.041 C 
HETATM   19  C   UNL     1       3.175  -8.972  -2.828  1.00  0.00     0.035 C 
HETATM   20  C   UNL     1       3.812  -9.115  -4.971  1.00  0.00     0.137 C 
HETATM   21  C   UNL     1       3.651 -10.427  -3.105  1.00  0.00     0.168 C 
HETATM   22  O   UNL     1       4.130 -10.421  -4.477  1.00  0.00    -0.385 OA
HETATM   23  C   UNL     1       4.676  -8.133  -5.801  1.00  0.00    -0.000 C 
HETATM   24  C   UNL     1       4.226  -7.872  -7.239  1.00  0.00     0.019 C 
HETATM   25  C   UNL     1       6.179  -8.408  -5.750  1.00  0.00     0.019 C 
ENDBRANCH   4  17
TORSDOF 3
