REMARK  6 active torsions:
REMARK  status: ('A' for Active; 'I' for Inactive)
REMARK    1  A    between atoms: N_8  and  C_9 
REMARK    2  A    between atoms: C_9  and  C_10 
REMARK    3  A    between atoms: C_10  and  O_11 
REMARK    4  A    between atoms: C_10  and  C_12 
REMARK    5  A    between atoms: C_12  and  S_13 
REMARK    6  A    between atoms: S_13  and  C_14 
ROOT
HETATM    1  C   UNL     1       7.579   0.904  -0.044  1.00  0.00     0.162 C 
ENDROOT
BRANCH   1   2
HETATM    2  N   UNL     1       6.495  -0.060  -0.120  1.00  0.00    -0.339 N 
HETATM    3  C   UNL     1       6.648  -1.419  -0.066  1.00  0.00     0.184 A 
HETATM    4  N   UNL     1       5.492  -2.041  -0.061  1.00  0.00    -0.350 N 
HETATM    5  C   UNL     1       4.550  -1.044  -0.090  1.00  0.00     0.060 A 
ATOM      6  HN  UNL     1       5.329  -3.048  -0.040  1.00  0.00     0.166 HD
HETATM    7  C   UNL     1       3.152  -1.144  -0.073  1.00  0.00     0.039 A 
HETATM    8  C   UNL     1       5.146   0.211  -0.125  1.00  0.00     0.062 A 
HETATM    9  C   UNL     1       2.368   0.026  -0.074  1.00  0.00    -0.054 A 
HETATM   10  C   UNL     1       0.869  -0.109  -0.036  1.00  0.00     0.049 C 
HETATM   11  C   UNL     1       2.992   1.292  -0.099  1.00  0.00    -0.054 A 
HETATM   12  C   UNL     1       4.398   1.397  -0.135  1.00  0.00     0.039 A 
HETATM   13  C   UNL     1       2.175   2.558  -0.081  1.00  0.00     0.049 C 
ENDBRANCH   1   2
BRANCH   1  14
HETATM   14  C   UNL     1       8.627   0.753  -1.162  1.00  0.00     0.146 C 
BRANCH  14  15
HETATM   15  O   UNL     1       8.043   1.033  -2.442  1.00  0.00    -0.393 OA
HETATM   16  H   UNL     1       7.489   1.831  -2.383  1.00  0.00     0.210 HD
ENDBRANCH  14  15
BRANCH  14  17
HETATM   17  C   UNL     1       9.844   1.677  -0.975  1.00  0.00     0.114 C 
BRANCH  17  18
HETATM   18  S   UNL     1      10.764   1.290   0.547  1.00  0.00    -0.101 SA
BRANCH  18  19
HETATM   19  C   UNL     1      12.074   2.442   0.473  1.00  0.00     0.127 A 
HETATM   20  N   UNL     1      12.222   3.307  -0.507  1.00  0.00    -0.288 N 
HETATM   21  N   UNL     1      13.345   4.097  -0.336  1.00  0.00    -0.304 N 
ATOM     22  HN  UNL     1      11.584   3.386  -1.299  1.00  0.00     0.188 HD
HETATM   23  C   UNL     1      13.991   3.794   0.770  1.00  0.00     0.159 A 
ATOM     24  HN  UNL     1      13.637   4.825  -0.988  1.00  0.00     0.186 HD
HETATM   25  S   UNL     1      13.280   2.535   1.690  1.00  0.00    -0.057 SA
ENDBRANCH  18  19
ENDBRANCH  17  18
ENDBRANCH  14  17
ENDBRANCH   1  14
TORSDOF 6
