REMARK  5 active torsions:
REMARK  status: ('A' for Active; 'I' for Inactive)
REMARK    1  A    between atoms: C_2  and  N_3 
REMARK    2  A    between atoms: C_7  and  N_9 
REMARK       I    between atoms: N_9  and  C_10 
REMARK       I    between atoms: C_10  and  N_12 
REMARK    3  A    between atoms: N_12  and  C_13 
REMARK    4  A    between atoms: C_13  and  C_14 
REMARK    5  A    between atoms: C_14  and  C_15 
ROOT
HETATM    1  N   UNL     1       5.965  -0.789  -1.470  1.00  0.00    -0.337 N 
HETATM    2  C   UNL     1       5.976  -2.118  -1.109  1.00  0.00     0.316 C 
HETATM    3  O   UNL     1       4.999  -2.733  -0.706  1.00  0.00    -0.247 OA
HETATM    4  N   UNL     1       7.210  -2.679  -1.273  1.00  0.00    -0.343 N 
HETATM    5  H   UNL     1       6.837  -0.297  -1.335  1.00  0.00     0.164 HD
HETATM    6  H   UNL     1       7.720  -2.303  -2.066  1.00  0.00     0.164 HD
ENDROOT
BRANCH   1   7
HETATM    7  C   UNL     1       4.720  -0.058  -1.315  1.00  0.00     0.114 C 
HETATM    8  C   UNL     1       4.614   1.171  -2.219  1.00  0.00     0.029 C 
HETATM    9  C   UNL     1       3.255   1.850  -2.013  1.00  0.00     0.032 C 
HETATM   10  C   UNL     1       2.955   2.113  -0.532  1.00  0.00     0.272 C 
HETATM   11  N   UNL     1       3.101   0.939   0.342  1.00  0.00     0.090 N 
HETATM   12  C   UNL     1       4.447   0.352   0.153  1.00  0.00     0.297 C 
BRANCH  11  13
HETATM   13  C   UNL     1       2.079  -0.109   0.150  1.00  0.00     0.268 C 
HETATM   14  C   UNL     1       0.645   0.317   0.423  1.00  0.00     0.037 C 
ENDBRANCH  11  13
ENDBRANCH   1   7
BRANCH   4  15
HETATM   15  C   UNL     1       7.371  -4.112  -1.075  1.00  0.00     0.131 C 
BRANCH  15  16
HETATM   16  C   UNL     1       6.952  -4.935  -2.298  1.00  0.00     0.084 C 
BRANCH  16  17
HETATM   17  C   UNL     1       7.856  -4.659  -3.465  1.00  0.00     0.052 A 
HETATM   18  N   UNL     1       8.016  -3.466  -4.005  1.00  0.00    -0.363 N 
HETATM   19  C   UNL     1       8.908  -3.546  -5.055  1.00  0.00     0.095 A 
ATOM     20  HN  UNL     1       7.551  -2.613  -3.694  1.00  0.00     0.165 HD
HETATM   21  C   UNL     1       9.439  -4.794  -5.289  1.00  0.00     0.068 A 
HETATM   22  S   UNL     1       8.790  -5.918  -4.171  1.00  0.00    -0.087 SA
ENDBRANCH  16  17
ENDBRANCH  15  16
ENDBRANCH   4  15
TORSDOF 5
