REMARK  5 active torsions:
REMARK  status: ('A' for Active; 'I' for Inactive)
REMARK    1  A    between atoms: N_6  and  C_7 
REMARK    2  A    between atoms: C_7  and  C_8 
REMARK    3  A    between atoms: C_8  and  N_9 
REMARK       I    between atoms: N_9  and  C_10 
REMARK    4  A    between atoms: C_10  and  C_12 
REMARK    5  A    between atoms: C_12  and  N_13 
ROOT
HETATM    1  N   UNL     1       3.050  -4.864  -3.883  1.00  0.00    -0.358 N 
HETATM    2  C   UNL     1       2.637  -5.943  -3.129  1.00  0.00     0.235 C 
HETATM    3  O   UNL     1       1.940  -5.839  -2.124  1.00  0.00    -0.272 OA
HETATM    4  H   UNL     1       3.555  -5.037  -4.745  1.00  0.00     0.162 HD
ENDROOT
BRANCH   1   5
HETATM    5  C   UNL     1       2.623  -3.507  -3.582  1.00  0.00     0.152 C 
BRANCH   5   6
HETATM    6  C   UNL     1       3.172  -2.974  -2.240  1.00  0.00     0.292 C 
BRANCH   6   7
HETATM    7  N   UNL     1       2.713  -1.612  -1.894  1.00  0.00     0.090 N 
HETATM    8  C   UNL     1       3.219  -0.598  -2.830  1.00  0.00     0.272 C 
HETATM    9  C   UNL     1       2.724   0.804  -2.472  1.00  0.00     0.031 C 
HETATM   10  C   UNL     1       3.055   1.166  -1.028  1.00  0.00     0.007 C 
HETATM   11  C   UNL     1       2.587   0.080  -0.055  1.00  0.00     0.010 C 
HETATM   12  C   UNL     1       1.063   0.074   0.102  1.00  0.00     0.011 C 
HETATM   13  C   UNL     1       3.113  -1.292  -0.510  1.00  0.00     0.276 C 
ENDBRANCH   6   7
ENDBRANCH   5   6
ENDBRANCH   1   5
BRANCH   2  14
HETATM   14  C   UNL     1       3.192  -7.290  -3.582  1.00  0.00     0.234 C 
BRANCH  14  15
HETATM   15  N   UNL     1       4.518  -7.542  -3.019  1.00  0.00    -0.316 N 
HETATM   16  C   UNL     1       4.650  -7.726  -1.651  1.00  0.00     0.095 A 
HETATM   17  C   UNL     1       5.841  -7.986  -1.098  1.00  0.00     0.017 A 
HETATM   18  C   UNL     1       7.006  -8.124  -1.933  1.00  0.00     0.007 A 
HETATM   19  C   UNL     1       6.920  -7.925  -3.256  1.00  0.00     0.074 A 
HETATM   20  C   UNL     1       5.615  -7.559  -3.875  1.00  0.00     0.247 A 
HETATM   21  O   UNL     1       5.565  -7.314  -5.078  1.00  0.00    -0.268 OA
ENDBRANCH  14  15
ENDBRANCH   2  14
TORSDOF 5
