REMARK  5 active torsions:
REMARK  status: ('A' for Active; 'I' for Inactive)
REMARK    1  A    between atoms: S_2  and  N_5 
REMARK    2  A    between atoms: C_8  and  C_11 
REMARK       I    between atoms: C_11  and  N_13 
REMARK    3  A    between atoms: N_13  and  C_14 
REMARK    4  A    between atoms: C_14  and  C_15 
REMARK    5  A    between atoms: C_15  and  C_16 
ROOT
HETATM    1  C   UNL     1       3.096   5.153  -0.495  1.00  0.00     0.221 C 
HETATM    2  O   UNL     1       3.138   5.244  -1.719  1.00  0.00    -0.273 OA
HETATM    3  N   UNL     1       3.733   6.055   0.331  1.00  0.00    -0.360 N 
HETATM    4  H   UNL     1       3.628   5.988   1.335  1.00  0.00     0.162 HD
ENDROOT
BRANCH   1   5
HETATM    5  C   UNL     1       2.316   4.057   0.230  1.00  0.00     0.081 C 
HETATM    6  C   UNL     1       3.219   3.215   1.138  1.00  0.00     0.034 C 
HETATM    7  C   UNL     1       4.143   2.309   0.330  1.00  0.00     0.136 C 
HETATM    8  N   UNL     1       3.370   1.450  -0.590  1.00  0.00    -0.311 N 
HETATM    9  C   UNL     1       2.503   2.210  -1.521  1.00  0.00     0.136 C 
HETATM   10  C   UNL     1       1.569   3.150  -0.761  1.00  0.00     0.034 C 
BRANCH   8  11
HETATM   11  S   UNL     1       2.829  -0.054  -0.037  1.00  0.00     0.224 S 
HETATM   12  C   UNL     1       4.354  -0.975   0.010  1.00  0.00     0.186 C 
HETATM   13  O   UNL     1       2.000  -0.653  -1.061  1.00  0.00    -0.206 OA
HETATM   14  O   UNL     1       2.349   0.105   1.318  1.00  0.00    -0.206 OA
ENDBRANCH   8  11
ENDBRANCH   1   5
BRANCH   3  15
HETATM   15  C   UNL     1       4.499   7.148  -0.243  1.00  0.00     0.128 C 
BRANCH  15  16
HETATM   16  C   UNL     1       5.111   8.073   0.802  1.00  0.00     0.076 C 
BRANCH  16  17
HETATM   17  C   UNL     1       5.874   9.178   0.119  1.00  0.00     0.010 A 
HETATM   18  C   UNL     1       5.244  10.373  -0.220  1.00  0.00     0.025 A 
HETATM   19  C   UNL     1       5.960  11.331  -0.931  1.00  0.00     0.003 A 
HETATM   20  C   UNL     1       7.278  11.073  -1.285  1.00  0.00     0.017 A 
HETATM   21  C   UNL     1       7.831   9.863  -0.904  1.00  0.00     0.088 A 
HETATM   22  N   UNL     1       7.161   8.914  -0.213  1.00  0.00    -0.369 N 
ATOM     23  HN  UNL     1       7.606   8.034   0.048  1.00  0.00     0.165 HD
ENDBRANCH  16  17
ENDBRANCH  15  16
ENDBRANCH   3  15
TORSDOF 5
