REMARK  6 active torsions:
REMARK  status: ('A' for Active; 'I' for Inactive)
REMARK    1  A    between atoms: C_2  and  N_3 
REMARK    2  A    between atoms: C_2  and  C_13 
REMARK    3  A    between atoms: N_3  and  C_4 
REMARK    4  A    between atoms: C_4  and  C_5 
REMARK    5  A    between atoms: C_5  and  N_6 
REMARK    6  A    between atoms: C_13  and  N_15 
ROOT
HETATM    1  N   UNL     1       2.886  -1.004  -0.892  1.00  0.00     0.091 N 
HETATM    2  H   UNL     1       2.484  -1.887  -0.574  1.00  0.00     0.316 HD
ENDROOT
BRANCH   1   3
HETATM    3  C   UNL     1       2.495   0.076   0.044  1.00  0.00     0.240 C 
HETATM    4  C   UNL     1       0.964   0.127   0.171  1.00  0.00     0.045 C 
BRANCH   3   5
HETATM    5  C   UNL     1       3.123   1.476  -0.254  1.00  0.00     0.136 C 
HETATM    6  C   UNL     1       2.737   2.544   0.778  1.00  0.00     0.036 C 
BRANCH   5   7
HETATM    7  N   UNL     1       4.583   1.423  -0.369  1.00  0.00    -0.297 N 
HETATM    8  C   UNL     1       5.483   1.038   0.589  1.00  0.00     0.112 A 
HETATM    9  C   UNL     1       6.730   1.216   0.036  1.00  0.00     0.037 A 
HETATM   10  C   UNL     1       6.480   1.734  -1.247  1.00  0.00     0.108 A 
HETATM   11  N   UNL     1       5.177   1.894  -1.487  1.00  0.00    -0.310 N 
ATOM     12  HN  UNL     1       4.733   2.281  -2.320  1.00  0.00     0.186 HD
ENDBRANCH   5   7
ENDBRANCH   3   5
ENDBRANCH   1   3
BRANCH   1  13
HETATM   13  C   UNL     1       2.501  -0.776  -2.293  1.00  0.00     0.290 C 
BRANCH  13  14
HETATM   14  C   UNL     1       2.995  -1.919  -3.198  1.00  0.00     0.166 C 
BRANCH  14  15
HETATM   15  N   UNL     1       2.562  -1.766  -4.576  1.00  0.00    -0.267 N 
HETATM   16  C   UNL     1       3.395  -1.603  -5.648  1.00  0.00     0.245 A 
HETATM   17  O   UNL     1       4.614  -1.513  -5.628  1.00  0.00    -0.271 OA
HETATM   18  C   UNL     1       2.554  -1.590  -6.913  1.00  0.00     0.227 A 
HETATM   19  N   UNL     1       1.239  -1.737  -6.362  1.00  0.00    -0.334 N 
HETATM   20  C   UNL     1       1.268  -1.874  -4.993  1.00  0.00     0.325 A 
HETATM   21  H   UNL     1       0.374  -1.829  -6.880  1.00  0.00     0.164 HD
HETATM   22  O   UNL     1       0.280  -2.070  -4.308  1.00  0.00    -0.247 OA
ENDBRANCH  14  15
ENDBRANCH  13  14
ENDBRANCH   1  13
TORSDOF 6
