REMARK  6 active torsions:
REMARK  status: ('A' for Active; 'I' for Inactive)
REMARK    1  A    between atoms: C_2  and  C_5 
REMARK    2  A    between atoms: C_5  and  C_6 
REMARK    3  A    between atoms: C_5  and  N_14 
REMARK    4  A    between atoms: C_6  and  C_7 
REMARK    5  A    between atoms: N_14  and  C_15 
REMARK    6  A    between atoms: C_15  and  C_16 
ROOT
HETATM    1  C   UNL     1       2.755  -0.041  -1.393  1.00  0.00     0.331 C 
ENDROOT
BRANCH   1   2
HETATM    2  C   UNL     1       2.107  -1.378  -1.879  1.00  0.00     0.418 C 
HETATM    3  F   UNL     1       1.303  -1.963  -0.970  1.00  0.00    -0.169 F 
HETATM    4  F   UNL     1       3.052  -2.302  -2.188  1.00  0.00    -0.169 F 
HETATM    5  F   UNL     1       1.380  -1.168  -3.002  1.00  0.00    -0.169 F 
ENDBRANCH   1   2
BRANCH   1   6
HETATM    6  C   UNL     1       2.351   0.290   0.066  1.00  0.00     0.083 C 
BRANCH   6   7
HETATM    7  C   UNL     1       0.868   0.471   0.297  1.00  0.00    -0.053 A 
HETATM    8  C   UNL     1       0.187  -0.360   1.192  1.00  0.00     0.024 A 
HETATM    9  C   UNL     1      -1.179  -0.195   1.356  1.00  0.00     0.088 A 
HETATM   10  N   UNL     1      -1.903   0.741   0.708  1.00  0.00    -0.375 N 
HETATM   11  C   UNL     1      -1.228   1.547  -0.138  1.00  0.00     0.088 A 
ATOM     12  HN  UNL     1      -2.909   0.835   0.850  1.00  0.00     0.164 HD
HETATM   13  C   UNL     1       0.137   1.457  -0.371  1.00  0.00     0.024 A 
ENDBRANCH   6   7
ENDBRANCH   1   6
BRANCH   1  14
HETATM   14  N   UNL     1       4.254   0.046  -1.461  1.00  0.00     0.097 N 
HETATM   15  H   UNL     1       4.651  -0.741  -0.940  1.00  0.00     0.316 HD
BRANCH  14  16
HETATM   16  C   UNL     1       4.752  -0.016  -2.844  1.00  0.00     0.275 C 
BRANCH  16  17
HETATM   17  C   UNL     1       6.300  -0.008  -2.889  1.00  0.00     0.017 C 
HETATM   18  C   UNL     1       6.884   1.298  -2.310  1.00  0.00     0.010 C 
HETATM   19  C   UNL     1       7.757   2.182  -3.202  1.00  0.00     0.027 C 
HETATM   20  C   UNL     1       8.178   1.615  -4.510  1.00  0.00    -0.031 C 
HETATM   21  C   UNL     1       7.748   0.447  -4.993  1.00  0.00    -0.030 C 
HETATM   22  C   UNL     1       6.782  -0.442  -4.290  1.00  0.00     0.033 C 
ENDBRANCH  16  17
ENDBRANCH  14  16
ENDBRANCH   1  14
TORSDOF 6
