REMARK  4 active torsions:
REMARK  status: ('A' for Active; 'I' for Inactive)
REMARK    1  A    between atoms: O_1  and  C_2 
REMARK    2  A    between atoms: C_7  and  C_8 
REMARK    3  A    between atoms: C_8  and  N_9 
REMARK       I    between atoms: N_9  and  C_10 
REMARK       I    between atoms: C_10  and  N_12 
REMARK    4  A    between atoms: N_12  and  C_13 
ROOT
HETATM    1  N   UNL     1       2.875  -2.190   2.108  1.00  0.00    -0.342 N 
HETATM    2  C   UNL     1       2.076  -1.366   2.859  1.00  0.00     0.320 C 
HETATM    3  O   UNL     1       1.058  -0.860   2.402  1.00  0.00    -0.247 OA
HETATM    4  N   UNL     1       2.577  -1.166   4.124  1.00  0.00    -0.306 N 
HETATM    5  H   UNL     1       3.565  -2.766   2.566  1.00  0.00     0.164 HD
HETATM    6  H   UNL     1       3.569  -1.334   4.248  1.00  0.00     0.171 HD
ENDROOT
BRANCH   1   7
HETATM    7  C   UNL     1       2.543  -2.479   0.721  1.00  0.00     0.131 C 
BRANCH   7   8
HETATM    8  C   UNL     1       3.055  -1.383  -0.228  1.00  0.00     0.032 C 
HETATM    9  C   UNL     1       2.513  -1.593  -1.654  1.00  0.00     0.123 C 
HETATM   10  C   UNL     1       3.081  -0.556  -2.629  1.00  0.00     0.032 C 
HETATM   11  C   UNL     1       4.609  -0.527  -2.606  1.00  0.00     0.002 C 
HETATM   12  C   UNL     1       5.142  -0.308  -1.195  1.00  0.00     0.001 C 
HETATM   13  C   UNL     1       4.594  -1.343  -0.218  1.00  0.00     0.009 C 
BRANCH   9  14
HETATM   14  O   UNL     1       2.853  -2.903  -2.108  1.00  0.00    -0.395 OA
HETATM   15  H   UNL     1       2.516  -2.993  -3.017  1.00  0.00     0.210 HD
ENDBRANCH   9  14
ENDBRANCH   7   8
ENDBRANCH   1   7
BRANCH   4  16
HETATM   16  C   UNL     1       1.936  -0.415   5.137  1.00  0.00     0.077 A 
HETATM   17  C   UNL     1       0.572  -0.124   5.118  1.00  0.00     0.050 A 
HETATM   18  C   UNL     1       0.041   0.661   6.130  1.00  0.00     0.090 A 
HETATM   19  N   UNL     1       0.765   1.156   7.157  1.00  0.00    -0.372 N 
HETATM   20  C   UNL     1       2.080   0.838   7.172  1.00  0.00     0.132 A 
ATOM     21  HN  UNL     1       0.344   1.738   7.881  1.00  0.00     0.164 HD
HETATM   22  C   UNL     1       2.695   0.060   6.205  1.00  0.00     0.158 A 
HETATM   23  F   UNL     1       4.005  -0.210   6.286  1.00  0.00    -0.202 F 
ENDBRANCH   4  16
TORSDOF 4
