REMARK  4 active torsions:
REMARK  status: ('A' for Active; 'I' for Inactive)
REMARK    1  A    between atoms: C_2  and  N_3 
REMARK    2  A    between atoms: C_5  and  N_6 
REMARK       I    between atoms: N_6  and  C_7 
REMARK       I    between atoms: C_7  and  N_9 
REMARK    3  A    between atoms: N_9  and  C_10 
REMARK    4  A    between atoms: N_12  and  C_13 
ROOT
HETATM    1  N   UNL     1       4.399  -2.246  -4.023  1.00  0.00    -0.306 N 
HETATM    2  C   UNL     1       5.091  -1.257  -4.685  1.00  0.00     0.321 C 
HETATM    3  O   UNL     1       5.476  -0.196  -4.211  1.00  0.00    -0.247 OA
HETATM    4  N   UNL     1       5.282  -1.553  -6.022  1.00  0.00    -0.336 N 
HETATM    5  H   UNL     1       4.070  -3.044  -4.545  1.00  0.00     0.171 HD
HETATM    6  H   UNL     1       5.365  -2.534  -6.250  1.00  0.00     0.164 HD
ENDROOT
BRANCH   1   7
HETATM    7  C   UNL     1       4.002  -2.158  -2.699  1.00  0.00     0.070 A 
HETATM    8  C   UNL     1       4.263  -1.150  -1.802  1.00  0.00     0.141 A 
HETATM    9  N   UNL     1       3.636  -1.485  -0.640  1.00  0.00    -0.302 N 
HETATM   10  N   UNL     1       3.000  -2.670  -0.702  1.00  0.00    -0.308 N 
HETATM   11  C   UNL     1       3.226  -3.078  -1.956  1.00  0.00     0.138 A 
ATOM     12  HN  UNL     1       2.472  -3.143   0.031  1.00  0.00     0.186 HD
BRANCH   9  13
HETATM   13  C   UNL     1       3.605  -0.687   0.570  1.00  0.00     0.143 C 
HETATM   14  C   UNL     1       2.427   0.270   0.591  1.00  0.00     0.028 C 
ENDBRANCH   9  13
ENDBRANCH   1   7
BRANCH   4  15
HETATM   15  C   UNL     1       6.021  -0.599  -6.847  1.00  0.00     0.112 C 
HETATM   16  C   UNL     1       5.342   0.768  -6.968  1.00  0.00     0.152 C 
HETATM   17  N   UNL     1       5.728   1.254  -8.268  1.00  0.00    -0.345 N 
HETATM   18  C   UNL     1       6.174   0.222  -9.088  1.00  0.00     0.222 C 
HETATM   19  O   UNL     1       6.453   0.289 -10.276  1.00  0.00    -0.273 OA
HETATM   20  C   UNL     1       6.168  -1.059  -8.293  1.00  0.00     0.129 C 
BRANCH  17  21
HETATM   21  C   UNL     1       5.174   2.474  -8.768  1.00  0.00     0.087 A 
HETATM   22  C   UNL     1       5.935   3.394  -9.682  1.00  0.00     0.027 A 
HETATM   23  C   UNL     1       5.666   3.806  -8.266  1.00  0.00     0.027 A 
ENDBRANCH  17  21
ENDBRANCH   4  15
TORSDOF 4
