REMARK  6 active torsions:
REMARK  status: ('A' for Active; 'I' for Inactive)
REMARK    1  A    between atoms: C_2  and  C_4 
REMARK    2  A    between atoms: C_4  and  N_5 
REMARK    3  A    between atoms: C_4  and  C_9 
REMARK       I    between atoms: N_5  and  C_6 
REMARK       I    between atoms: C_9  and  N_11 
REMARK    4  A    between atoms: N_11  and  C_12 
REMARK    5  A    between atoms: C_12  and  C_13 
REMARK    6  A    between atoms: C_19  and  N_20 
ROOT
HETATM    1  C   UNL     1       6.634   2.281   1.324  1.00  0.00     0.165 C 
ENDROOT
BRANCH   1   2
HETATM    2  N   UNL     1       5.194   2.166   1.224  1.00  0.00    -0.355 N 
HETATM    3  C   UNL     1       4.579   1.132   0.556  1.00  0.00     0.241 C 
HETATM    4  O   UNL     1       5.226   0.258  -0.021  1.00  0.00    -0.271 OA
HETATM    5  H   UNL     1       4.614   2.855   1.683  1.00  0.00     0.162 HD
BRANCH   3   6
HETATM    6  C   UNL     1       3.047   1.024   0.788  1.00  0.00     0.179 C 
BRANCH   6   7
HETATM    7  C   UNL     1       2.715   0.058   1.956  1.00  0.00     0.009 C 
HETATM    8  C   UNL     1       1.200  -0.049   2.185  1.00  0.00     0.012 C 
HETATM    9  C   UNL     1       3.263  -1.355   1.720  1.00  0.00     0.012 C 
ENDBRANCH   6   7
BRANCH   6  10
HETATM   10  N   UNL     1       2.509   2.366   1.064  1.00  0.00    -0.348 N 
HETATM   11  C   UNL     1       2.217   3.232   0.033  1.00  0.00     0.214 C 
HETATM   12  O   UNL     1       2.373   2.957  -1.150  1.00  0.00    -0.274 OA
HETATM   13  C   UNL     1       1.674   4.559   0.481  1.00  0.00     0.117 C 
HETATM   14  H   UNL     1       2.327   2.643   2.018  1.00  0.00     0.163 HD
ENDBRANCH   6  10
ENDBRANCH   3   6
ENDBRANCH   1   2
BRANCH   1  15
HETATM   15  C   UNL     1       7.006   3.299   2.368  1.00  0.00     0.004 A 
HETATM   16  C   UNL     1       7.131   4.634   1.939  1.00  0.00     0.014 A 
HETATM   17  C   UNL     1       7.488   5.626   2.834  1.00  0.00     0.018 A 
HETATM   18  C   UNL     1       7.707   5.247   4.140  1.00  0.00     0.089 A 
HETATM   19  N   UNL     1       7.603   3.974   4.586  1.00  0.00    -0.352 N 
HETATM   20  C   UNL     1       7.249   2.992   3.721  1.00  0.00     0.111 A 
ATOM     21  HN  UNL     1       7.789   3.755   5.565  1.00  0.00     0.166 HD
BRANCH  20  22
HETATM   22  N   UNL     1       7.243   1.706   4.208  1.00  0.00    -0.363 N 
HETATM   23  C   UNL     1       8.049   1.360   5.387  1.00  0.00     0.150 C 
HETATM   24  C   UNL     1       8.587  -0.073   5.168  1.00  0.00     0.187 C 
HETATM   25  O   UNL     1       7.535  -1.026   4.904  1.00  0.00    -0.388 OA
HETATM   26  C   UNL     1       6.740  -0.612   3.776  1.00  0.00     0.187 C 
HETATM   27  C   UNL     1       6.129   0.771   4.043  1.00  0.00     0.150 C 
ENDBRANCH  20  22
ENDBRANCH   1  15
TORSDOF 6
