REMARK  5 active torsions:
REMARK  status: ('A' for Active; 'I' for Inactive)
REMARK    1  A    between atoms: C_2  and  C_3 
REMARK       I    between atoms: C_2  and  N_12 
REMARK    2  A    between atoms: C_3  and  N_4 
REMARK    3  A    between atoms: N_12  and  C_13 
REMARK    4  A    between atoms: C_13  and  C_14 
REMARK    5  A    between atoms: C_14  and  N_15 
ROOT
HETATM    1  O   UNL     1       2.754   0.854   0.619  1.00  0.00    -0.272 OA
HETATM    2  C   UNL     1       2.261   0.011  -0.127  1.00  0.00     0.236 C 
HETATM    3  N   UNL     1       3.019  -0.810  -0.936  1.00  0.00    -0.358 N 
HETATM    4  H   UNL     1       2.553  -1.309  -1.687  1.00  0.00     0.162 HD
ENDROOT
BRANCH   2   5
HETATM    5  C   UNL     1       0.749  -0.224  -0.217  1.00  0.00     0.235 C 
BRANCH   5   6
HETATM    6  N   UNL     1       0.021   0.963  -0.662  1.00  0.00    -0.301 N 
HETATM    7  C   UNL     1      -0.451   1.870   0.264  1.00  0.00     0.102 A 
HETATM    8  C   UNL     1      -1.185   2.925  -0.096  1.00  0.00     0.092 A 
HETATM    9  C   UNL     1      -1.495   3.124  -1.521  1.00  0.00     0.250 A 
HETATM   10  O   UNL     1      -2.223   4.036  -1.891  1.00  0.00    -0.268 OA
HETATM   11  N   UNL     1      -0.926   2.227  -2.380  1.00  0.00    -0.275 N 
HETATM   12  C   UNL     1      -0.184   1.132  -2.025  1.00  0.00     0.329 A 
HETATM   13  H   UNL     1      -1.123   2.348  -3.362  1.00  0.00     0.173 HD
HETATM   14  O   UNL     1       0.244   0.356  -2.877  1.00  0.00    -0.246 OA
ENDBRANCH   5   6
ENDBRANCH   2   5
BRANCH   3  15
HETATM   15  C   UNL     1       4.469  -0.710  -0.991  1.00  0.00     0.143 C 
BRANCH  15  16
HETATM   16  C   UNL     1       5.174  -1.639   0.012  1.00  0.00     0.155 C 
BRANCH  16  17
HETATM   17  N   UNL     1       6.626  -1.516  -0.046  1.00  0.00    -0.277 N 
HETATM   18  C   UNL     1       7.334  -1.942  -1.145  1.00  0.00     0.236 C 
HETATM   19  O   UNL     1       6.834  -2.457  -2.139  1.00  0.00    -0.272 OA
HETATM   20  C   UNL     1       8.814  -1.717  -0.998  1.00  0.00     0.187 C 
HETATM   21  S   UNL     1       9.050  -1.009   0.640  1.00  0.00    -0.059 SA
HETATM   22  C   UNL     1       7.352  -1.122   1.041  1.00  0.00     0.289 C 
HETATM   23  O   UNL     1       6.937  -0.900   2.166  1.00  0.00    -0.260 OA
ENDBRANCH  16  17
ENDBRANCH  15  16
ENDBRANCH   3  15
TORSDOF 5
