REMARK  5 active torsions:
REMARK  status: ('A' for Active; 'I' for Inactive)
REMARK    1  A    between atoms: C_2  and  C_3 
REMARK    2  A    between atoms: C_6  and  C_7 
REMARK    3  A    between atoms: C_7  and  C_8 
REMARK    4  A    between atoms: C_8  and  N_9 
REMARK       I    between atoms: N_9  and  C_10 
REMARK    5  A    between atoms: C_10  and  C_12 
ROOT
HETATM    1  C   UNL     1       4.120   1.075   4.624  1.00  0.00     0.077 C 
ENDROOT
BRANCH   1   2
HETATM    2  C   UNL     1       3.747   0.230   3.445  1.00  0.00     0.018 A 
HETATM    3  N   UNL     1       3.132  -0.996   3.653  1.00  0.00    -0.357 N 
HETATM    4  C   UNL     1       2.917  -1.600   2.503  1.00  0.00     0.050 A 
ATOM      5  HN  UNL     1       2.882  -1.375   4.566  1.00  0.00     0.166 HD
HETATM    6  S   UNL     1       3.379  -0.711   1.107  1.00  0.00    -0.087 SA
HETATM    7  C   UNL     1       3.947   0.553   2.115  1.00  0.00     0.076 A 
BRANCH   4   8
HETATM    8  C   UNL     1       2.325  -2.968   2.370  1.00  0.00     0.060 C 
HETATM    9  C   UNL     1       3.403  -4.041   2.371  1.00  0.00     0.012 C 
ENDBRANCH   4   8
ENDBRANCH   1   2
BRANCH   1  10
HETATM   10  C   UNL     1       4.449   0.245   5.866  1.00  0.00     0.128 C 
BRANCH  10  11
HETATM   11  N   UNL     1       4.874   1.058   6.994  1.00  0.00    -0.360 N 
HETATM   12  C   UNL     1       6.188   1.420   7.164  1.00  0.00     0.222 C 
HETATM   13  O   UNL     1       7.078   1.176   6.362  1.00  0.00    -0.273 OA
HETATM   14  H   UNL     1       4.189   1.312   7.692  1.00  0.00     0.162 HD
BRANCH  12  15
HETATM   15  C   UNL     1       6.457   2.142   8.443  1.00  0.00     0.082 A 
HETATM   16  C   UNL     1       7.796   2.809   8.678  1.00  0.00     0.019 A 
HETATM   17  C   UNL     1       7.419   1.595   9.483  1.00  0.00    -0.005 A 
HETATM   18  C   UNL     1       8.175   0.322   9.300  1.00  0.00     0.011 C 
ENDBRANCH  12  15
ENDBRANCH  10  11
ENDBRANCH   1  10
TORSDOF 5
