REMARK  4 active torsions:
REMARK  status: ('A' for Active; 'I' for Inactive)
REMARK    1  A    between atoms: O_2  and  C_3 
REMARK    2  A    between atoms: C_6  and  N_7 
REMARK       I    between atoms: N_7  and  C_8 
REMARK       I    between atoms: C_8  and  N_10 
REMARK    3  A    between atoms: N_10  and  C_11 
REMARK    4  A    between atoms: C_14  and  O_15 
ROOT
HETATM    1  N   UNL     1       4.071   1.706  -5.133  1.00  0.00    -0.308 N 
HETATM    2  C   UNL     1       4.462   0.698  -5.987  1.00  0.00     0.321 C 
HETATM    3  O   UNL     1       4.197  -0.487  -5.847  1.00  0.00    -0.247 OA
HETATM    4  N   UNL     1       5.203   1.148  -7.054  1.00  0.00    -0.338 N 
HETATM    5  H   UNL     1       3.959   2.623  -5.538  1.00  0.00     0.170 HD
HETATM    6  H   UNL     1       5.432   2.129  -7.113  1.00  0.00     0.164 HD
ENDROOT
BRANCH   1   7
HETATM    7  C   UNL     1       3.519   1.485  -3.848  1.00  0.00     0.051 A 
HETATM    8  C   UNL     1       3.697   0.293  -3.143  1.00  0.00     0.035 A 
HETATM    9  C   UNL     1       3.153   0.144  -1.872  1.00  0.00     0.058 A 
HETATM   10  C   UNL     1       2.427   1.193  -1.340  1.00  0.00     0.141 A 
HETATM   11  N   UNL     1       2.241   2.373  -1.971  1.00  0.00    -0.345 N 
HETATM   12  C   UNL     1       2.799   2.490  -3.204  1.00  0.00     0.119 A 
ATOM     13  HN  UNL     1       1.711   3.134  -1.545  1.00  0.00     0.167 HD
BRANCH  10  14
HETATM   14  O   UNL     1       1.929   0.996  -0.069  1.00  0.00    -0.341 OA
HETATM   15  C   UNL     1       0.832   1.851   0.226  1.00  0.00     0.211 C 
ENDBRANCH  10  14
ENDBRANCH   1   7
BRANCH   4  16
HETATM   16  C   UNL     1       5.700   0.214  -8.064  1.00  0.00     0.086 C 
HETATM   17  C   UNL     1       6.801  -0.727  -7.545  1.00  0.00     0.028 C 
HETATM   18  C   UNL     1       8.145  -0.037  -7.309  1.00  0.00     0.034 C 
HETATM   19  C   UNL     1       8.597   0.867  -8.458  1.00  0.00     0.118 C 
HETATM   20  C   UNL     1       7.482   1.726  -9.055  1.00  0.00     0.034 C 
HETATM   21  C   UNL     1       6.192   0.946  -9.312  1.00  0.00     0.028 C 
BRANCH  19  22
HETATM   22  O   UNL     1       9.196   0.086  -9.490  1.00  0.00    -0.396 OA
HETATM   23  H   UNL     1       8.574  -0.605  -9.767  1.00  0.00     0.210 HD
ENDBRANCH  19  22
ENDBRANCH   4  16
TORSDOF 4
