REMARK  4 active torsions:
REMARK  status: ('A' for Active; 'I' for Inactive)
REMARK    1  A    between atoms: N_2  and  C_16 
REMARK    2  A    between atoms: N_3  and  C_7 
REMARK    3  A    between atoms: C_16  and  C_17 
REMARK    4  A    between atoms: C_17  and  O_26 
ROOT
HETATM    1  C   UNL     1      -0.489  -0.477   0.861  1.00  0.00     0.117 A 
HETATM    2  N   UNL     1      -0.100   1.545   1.609  1.00  0.00    -0.324 N 
HETATM    3  C   UNL     1      -0.510   0.860   0.499  1.00  0.00     0.140 A 
HETATM    4  N   UNL     1      -0.011  -0.606   2.157  1.00  0.00    -0.346 N 
ATOM      5  HN  UNL     1       0.134  -1.470   2.680  1.00  0.00     0.167 HD
HETATM    6  C   UNL     1      -0.965  -1.413  -0.093  1.00  0.00     0.114 A 
HETATM    7  C   UNL     1       0.216   0.622   2.568  1.00  0.00     0.185 A 
HETATM    8  N   UNL     1      -0.892   1.390  -0.674  1.00  0.00    -0.336 N 
ATOM      9  HN  UNL     1      -0.880   2.387  -0.891  1.00  0.00     0.168 HD
HETATM   10  N   UNL     1      -1.339  -0.901  -1.307  1.00  0.00    -0.341 N 
ATOM     11  HN  UNL     1      -1.653  -1.526  -2.049  1.00  0.00     0.167 HD
HETATM   12  C   UNL     1      -1.292   0.429  -1.522  1.00  0.00     0.183 A 
ENDROOT
BRANCH   6  13
HETATM   13  N   UNL     1      -1.098  -2.803   0.154  1.00  0.00    -0.262 NA
HETATM   14  C   UNL     1      -1.563  -3.536  -1.037  1.00  0.00     0.138 C 
HETATM   15  C   UNL     1      -1.698  -5.053  -0.762  1.00  0.00     0.101 C 
HETATM   16  C   UNL     1      -0.334  -5.797  -0.803  1.00  0.00     0.153 C 
HETATM   17  C   UNL     1      -2.462  -5.698  -1.937  1.00  0.00     0.068 C 
HETATM   18  O   UNL     1      -2.513  -5.296   0.408  1.00  0.00    -0.370 OA
HETATM   19  O   UNL     1      -0.561  -7.009  -1.558  1.00  0.00    -0.383 OA
HETATM   20  C   UNL     1       0.330  -6.211   0.495  1.00  0.00     0.042 C 
HETATM   21  C   UNL     1      -1.493  -6.667  -2.575  1.00  0.00     0.171 C 
HETATM   22  C   UNL     1      -2.141  -4.546   1.578  1.00  0.00     0.132 C 
HETATM   23  C   UNL     1      -1.986  -3.037   1.313  1.00  0.00     0.128 C 
HETATM   24  C   UNL     1      -3.208  -4.795   2.639  1.00  0.00     0.041 C 
ENDBRANCH   6  13
BRANCH   2  25
HETATM   25  C   UNL     1      -0.186   2.979   1.793  1.00  0.00     0.171 C 
BRANCH  25  26
HETATM   26  C   UNL     1       1.060   3.770   1.374  1.00  0.00     0.097 C 
HETATM   27  C   UNL     1       2.338   3.411   2.104  1.00  0.00     0.068 C 
HETATM   28  C   UNL     1       3.142   4.699   2.040  1.00  0.00     0.170 C 
HETATM   29  O   UNL     1       2.215   5.786   1.950  1.00  0.00    -0.388 OA
HETATM   30  C   UNL     1       0.899   5.245   1.761  1.00  0.00     0.207 C 
BRANCH  26  31
HETATM   31  O   UNL     1       1.288   3.700  -0.039  1.00  0.00    -0.386 OA
HETATM   32  H   UNL     1       1.077   2.806  -0.367  1.00  0.00     0.210 HD
ENDBRANCH  26  31
ENDBRANCH  25  26
ENDBRANCH   2  25
TORSDOF 4
