REMARK  4 active torsions:
REMARK  status: ('A' for Active; 'I' for Inactive)
REMARK    1  A    between atoms: C_2  and  S_3 
REMARK    2  A    between atoms: S_3  and  C_4 
REMARK    3  A    between atoms: C_8  and  N_9 
REMARK       I    between atoms: N_9  and  C_10 
REMARK       I    between atoms: C_10  and  N_12 
REMARK    4  A    between atoms: N_12  and  C_13 
ROOT
HETATM    1  N   UNL     1       4.438   1.550   0.553  1.00  0.00    -0.337 N 
HETATM    2  C   UNL     1       4.465   0.839   1.726  1.00  0.00     0.321 C 
HETATM    3  O   UNL     1       5.068  -0.208   1.881  1.00  0.00    -0.247 OA
HETATM    4  N   UNL     1       3.846   1.535   2.750  1.00  0.00    -0.308 N 
HETATM    5  H   UNL     1       3.540   1.980   0.377  1.00  0.00     0.164 HD
HETATM    6  H   UNL     1       3.816   2.533   2.602  1.00  0.00     0.170 HD
ENDROOT
BRANCH   1   7
HETATM    7  C   UNL     1       5.224   1.226  -0.641  1.00  0.00     0.100 C 
HETATM    8  C   UNL     1       4.734   0.067  -1.527  1.00  0.00     0.070 C 
HETATM    9  C   UNL     1       5.428  -1.180  -0.978  1.00  0.00     0.017 C 
HETATM   10  C   UNL     1       6.739  -0.688  -0.358  1.00  0.00     0.003 C 
HETATM   11  C   UNL     1       6.686   0.843  -0.370  1.00  0.00     0.026 C 
BRANCH   8  12
HETATM   12  S   UNL     1       2.928  -0.150  -1.677  1.00  0.00    -0.163 SA
BRANCH  12  13
HETATM   13  C   UNL     1       2.501   1.393  -2.540  1.00  0.00     0.070 C 
HETATM   14  C   UNL     1       1.032   1.370  -2.926  1.00  0.00     0.016 C 
ENDBRANCH  12  13
ENDBRANCH   8  12
ENDBRANCH   1   7
BRANCH   4  15
HETATM   15  C   UNL     1       4.005   1.099   4.087  1.00  0.00     0.051 A 
HETATM   16  C   UNL     1       4.308   2.036   5.072  1.00  0.00     0.032 A 
HETATM   17  C   UNL     1       4.639   1.588   6.350  1.00  0.00     0.019 A 
HETATM   18  C   UNL     1       4.581   0.226   6.614  1.00  0.00     0.088 A 
HETATM   19  N   UNL     1       4.215  -0.702   5.704  1.00  0.00    -0.373 N 
HETATM   20  C   UNL     1       3.950  -0.247   4.454  1.00  0.00     0.117 A 
ATOM     21  HN  UNL     1       4.142  -1.691   5.943  1.00  0.00     0.164 HD
ENDBRANCH   4  15
TORSDOF 4
