REMARK  3 active torsions:
REMARK  status: ('A' for Active; 'I' for Inactive)
REMARK    1  A    between atoms: C_6  and  N_7 
REMARK    2  A    between atoms: N_14  and  C_15 
REMARK    3  A    between atoms: C_15  and  C_16 
ROOT
HETATM    1  C   UNL     1       0.987  -0.231  -0.003  1.00  0.00     0.069 C 
HETATM    2  C   UNL     1       2.467  -0.045  -0.057  1.00  0.00     0.016 A 
HETATM    3  C   UNL     1       3.219   1.128  -0.085  1.00  0.00    -0.022 A 
HETATM    4  C   UNL     1       2.706   2.526  -0.061  1.00  0.00     0.051 C 
HETATM    5  C   UNL     1       4.603   0.748  -0.125  1.00  0.00     0.054 A 
HETATM    6  C   UNL     1       5.843   1.410  -0.169  1.00  0.00     0.093 A 
HETATM    7  N   UNL     1       6.975   0.681  -0.169  1.00  0.00    -0.343 N 
ATOM      8  HN  UNL     1       7.889   1.133  -0.192  1.00  0.00     0.167 HD
HETATM    9  C   UNL     1       6.867  -0.660  -0.138  1.00  0.00     0.183 A 
HETATM   10  N   UNL     1       5.751  -1.403  -0.100  1.00  0.00    -0.338 N 
ATOM     11  HN  UNL     1       5.743  -2.423  -0.070  1.00  0.00     0.168 HD
HETATM   12  C   UNL     1       4.643  -0.638  -0.106  1.00  0.00     0.122 A 
HETATM   13  N   UNL     1       3.351  -1.109  -0.094  1.00  0.00    -0.333 N 
ENDROOT
BRANCH  13  14
HETATM   14  C   UNL     1       3.011  -2.521   0.005  1.00  0.00     0.162 C 
BRANCH  14  15
HETATM   15  C   UNL     1       2.772  -3.260  -1.315  1.00  0.00     0.139 C 
HETATM   16  C   UNL     1       3.933  -3.331  -2.292  1.00  0.00     0.035 C 
HETATM   17  C   UNL     1       3.275  -3.401  -3.655  1.00  0.00     0.029 C 
HETATM   18  C   UNL     1       1.793  -3.240  -3.389  1.00  0.00     0.168 C 
HETATM   19  O   UNL     1       1.671  -2.722  -2.061  1.00  0.00    -0.384 OA
ENDBRANCH  14  15
ENDBRANCH  13  14
BRANCH   6  20
HETATM   20  N   UNL     1       5.994   2.791  -0.191  1.00  0.00    -0.288 NA
HETATM   21  H   UNL     1       5.259   3.303   0.272  1.00  0.00     0.125 HD
HETATM   22  H   UNL     1       6.942   3.041   0.066  1.00  0.00     0.125 HD
ENDBRANCH   6  20
TORSDOF 3
