REMARK  3 active torsions:
REMARK  status: ('A' for Active; 'I' for Inactive)
REMARK       I    between atoms: N_1  and  C_2 
REMARK    1  A    between atoms: C_2  and  C_4 
REMARK    2  A    between atoms: C_4  and  C_5 
REMARK    3  A    between atoms: C_8  and  N_9 
ROOT
HETATM    1  C   UNL     1       4.739   0.095  -1.060  1.00  0.00     0.026 A 
HETATM    2  C   UNL     1       5.419   1.291  -0.932  1.00  0.00     0.078 A 
HETATM    3  S   UNL     1       7.091   0.993  -0.700  1.00  0.00    -0.064 SA
HETATM    4  C   UNL     1       6.796  -0.693  -0.790  1.00  0.00     0.142 A 
HETATM    5  N   UNL     1       5.544  -1.036  -0.962  1.00  0.00    -0.340 N 
ATOM      6  HN  UNL     1       5.206  -1.997  -1.016  1.00  0.00     0.168 HD
ENDROOT
BRANCH   1   7
HETATM    7  C   UNL     1       3.270  -0.084  -1.280  1.00  0.00     0.160 C 
BRANCH   7   8
HETATM    8  C   UNL     1       2.934  -0.766  -2.595  1.00  0.00     0.221 C 
HETATM    9  N   UNL     1       3.746  -1.790  -2.987  1.00  0.00    -0.370 N 
HETATM   10  H   UNL     1       3.581  -2.230  -3.881  1.00  0.00     0.159 HD
HETATM   11  H   UNL     1       4.634  -1.946  -2.514  1.00  0.00     0.159 HD
HETATM   12  O   UNL     1       1.935  -0.481  -3.251  1.00  0.00    -0.273 OA
ENDBRANCH   7   8
ENDBRANCH   1   7
BRANCH   4  13
HETATM   13  N   UNL     1       7.786  -1.591  -0.684  1.00  0.00    -0.380 N 
HETATM   14  H   UNL     1       8.646  -1.296  -0.233  1.00  0.00     0.158 HD
HETATM   15  H   UNL     1       7.504  -2.538  -0.458  1.00  0.00     0.158 HD
ENDBRANCH   4  13
TORSDOF 3
