REMARK  4 active torsions:
REMARK  status: ('A' for Active; 'I' for Inactive)
REMARK    1  A    between atoms: C_2  and  N_3 
REMARK    2  A    between atoms: C_5  and  N_6 
REMARK       I    between atoms: N_6  and  C_7 
REMARK       I    between atoms: C_7  and  N_9 
REMARK    3  A    between atoms: N_9  and  C_10 
REMARK    4  A    between atoms: C_10  and  C_11 
ROOT
HETATM    1  N   UNL     1       3.365   4.046  -2.903  1.00  0.00    -0.306 N 
HETATM    2  C   UNL     1       2.729   5.084  -2.261  1.00  0.00     0.320 C 
HETATM    3  O   UNL     1       2.116   5.004  -1.200  1.00  0.00    -0.247 OA
HETATM    4  N   UNL     1       2.870   6.291  -2.922  1.00  0.00    -0.342 N 
HETATM    5  H   UNL     1       3.904   4.240  -3.730  1.00  0.00     0.171 HD
HETATM    6  H   UNL     1       2.945   6.233  -3.929  1.00  0.00     0.164 HD
ENDROOT
BRANCH   1   7
HETATM    7  C   UNL     1       3.376   2.745  -2.423  1.00  0.00     0.070 A 
HETATM    8  C   UNL     1       2.759   2.258  -1.295  1.00  0.00     0.141 A 
HETATM    9  N   UNL     1       3.041   0.927  -1.236  1.00  0.00    -0.302 N 
HETATM   10  N   UNL     1       3.817   0.501  -2.252  1.00  0.00    -0.308 N 
HETATM   11  C   UNL     1       4.018   1.611  -2.972  1.00  0.00     0.138 A 
ATOM     12  HN  UNL     1       4.167  -0.441  -2.429  1.00  0.00     0.186 HD
BRANCH   9  13
HETATM   13  C   UNL     1       2.554   0.003  -0.230  1.00  0.00     0.143 C 
HETATM   14  C   UNL     1       3.467  -0.068   0.981  1.00  0.00     0.028 C 
ENDBRANCH   9  13
ENDBRANCH   1   7
BRANCH   4  15
HETATM   15  C   UNL     1       2.161   7.434  -2.377  1.00  0.00     0.130 C 
BRANCH  15  16
HETATM   16  C   UNL     1       2.846   8.770  -2.645  1.00  0.00     0.018 C 
HETATM   17  C   UNL     1       4.281   8.825  -2.087  1.00  0.00     0.022 C 
HETATM   18  C   UNL     1       4.655  10.266  -1.735  1.00  0.00     0.141 C 
HETATM   19  S   UNL     1       3.187  11.255  -1.913  1.00  0.00     0.144 S 
HETATM   20  O   UNL     1       2.960  12.013  -0.702  1.00  0.00    -0.228 OA
HETATM   21  O   UNL     1       3.201  11.869  -3.225  1.00  0.00    -0.228 OA
HETATM   22  C   UNL     1       2.062   9.889  -1.960  1.00  0.00     0.146 C 
ENDBRANCH  15  16
ENDBRANCH   4  15
TORSDOF 4
