REMARK  5 active torsions:
REMARK  status: ('A' for Active; 'I' for Inactive)
REMARK    1  A    between atoms: C_2  and  C_4 
REMARK    2  A    between atoms: C_9  and  N_10 
REMARK       I    between atoms: N_10  and  C_11 
REMARK       I    between atoms: C_11  and  N_13 
REMARK    3  A    between atoms: N_13  and  C_14 
REMARK    4  A    between atoms: C_14  and  C_15 
REMARK    5  A    between atoms: C_15  and  N_16 
ROOT
HETATM    1  N   UNL     1       4.562  -4.405   2.405  1.00  0.00    -0.288 N 
HETATM    2  C   UNL     1       4.404  -5.753   2.323  1.00  0.00     0.322 C 
HETATM    3  O   UNL     1       3.608  -6.361   1.615  1.00  0.00    -0.247 OA
HETATM    4  N   UNL     1       5.242  -6.497   3.101  1.00  0.00    -0.341 N 
HETATM    5  H   UNL     1       5.346  -4.003   2.887  1.00  0.00     0.172 HD
HETATM    6  H   UNL     1       5.102  -7.493   2.966  1.00  0.00     0.164 HD
ENDROOT
BRANCH   1   7
HETATM    7  C   UNL     1       3.815  -3.549   1.645  1.00  0.00     0.169 A 
HETATM    8  N   UNL     1       2.745  -3.769   0.922  1.00  0.00    -0.279 N 
HETATM    9  N   UNL     1       2.333  -2.636   0.257  1.00  0.00    -0.296 N 
ATOM     10  HN  UNL     1       2.274  -4.671   0.859  1.00  0.00     0.189 HD
HETATM   11  C   UNL     1       3.135  -1.613   0.475  1.00  0.00     0.073 A 
ATOM     12  HN  UNL     1       1.504  -2.593  -0.335  1.00  0.00     0.187 HD
HETATM   13  S   UNL     1       4.394  -1.943   1.600  1.00  0.00    -0.037 SA
BRANCH  11  14
HETATM   14  C   UNL     1       3.011  -0.281  -0.205  1.00  0.00     0.036 C 
HETATM   15  C   UNL     1       2.983  -0.476  -1.723  1.00  0.00     0.016 C 
HETATM   16  C   UNL     1       1.753   0.448   0.264  1.00  0.00     0.016 C 
ENDBRANCH  11  14
ENDBRANCH   1   7
BRANCH   4  17
HETATM   17  C   UNL     1       6.286  -6.066   4.008  1.00  0.00     0.154 C 
BRANCH  17  18
HETATM   18  C   UNL     1       5.763  -5.688   5.409  1.00  0.00     0.292 C 
BRANCH  18  19
HETATM   19  N   UNL     1       6.802  -5.015   6.203  1.00  0.00     0.096 N 
HETATM   20  C   UNL     1       7.974  -5.882   6.464  1.00  0.00     0.300 A 
HETATM   21  C   UNL     1       8.129  -5.926   7.937  1.00  0.00     0.001 A 
HETATM   22  C   UNL     1       7.187  -5.195   8.531  1.00  0.00     0.001 A 
HETATM   23  C   UNL     1       6.297  -4.562   7.518  1.00  0.00     0.300 A 
ENDBRANCH  18  19
ENDBRANCH  17  18
ENDBRANCH   4  17
TORSDOF 5
