REMARK  2 active torsions:
REMARK  status: ('A' for Active; 'I' for Inactive)
REMARK       I    between atoms: N_3  and  C_4 
REMARK    1  A    between atoms: C_4  and  C_6 
REMARK    2  A    between atoms: C_8  and  C_12 
ROOT
HETATM    1  C   UNL     2       3.199  -1.008   0.010  1.00  0.00     0.117 A 
HETATM    2  C   UNL     2       4.416  -1.154   0.630  1.00  0.00     0.063 A 
HETATM    3  C   UNL     2       4.688  -2.506   0.568  1.00  0.00     0.034 A 
HETATM    4  N   UNL     2       3.644  -3.118  -0.032  1.00  0.00    -0.304 N 
HETATM    5  N   UNL     2       2.738  -2.214  -0.370  1.00  0.00    -0.295 N 
ATOM      6  HN  UNL     2       1.849  -2.398  -0.835  1.00  0.00     0.187 HD
HETATM    7  H   UNL     2       3.540  -4.138  -0.234  1.00  0.00     0.186 HD
ENDROOT
BRANCH   3   8
HETATM    8  C   UNL     2       5.981  -3.177   1.014  1.00  0.00     0.065 C 
HETATM    9  C   UNL     2       7.194  -2.243   0.789  1.00  0.00     0.014 C 
HETATM   10  C   UNL     2       7.352  -1.937  -0.708  1.00  0.00     0.031 C 
HETATM   11  C   UNL     2       7.504  -3.248  -1.488  1.00  0.00     0.269 C 
HETATM   12  N   UNL     2       6.374  -4.155  -1.224  1.00  0.00     0.084 N 
HETATM   13  C   UNL     2       6.257  -4.468   0.212  1.00  0.00     0.280 C 
HETATM   14  H   UNL     2       6.535  -5.045  -1.750  1.00  0.00     0.315 HD
ENDBRANCH   3   8
BRANCH   1  15
HETATM   15  C   UNL     2       2.522   0.277  -0.242  1.00  0.00     0.267 C 
HETATM   16  N   UNL     2       1.337   0.326  -0.895  1.00  0.00    -0.365 N 
HETATM   17  H   UNL     2       0.882   1.232  -1.077  1.00  0.00     0.159 HD
HETATM   18  H   UNL     2       0.870  -0.537  -1.213  1.00  0.00     0.159 HD
HETATM   19  O   UNL     2       3.053   1.318   0.117  1.00  0.00    -0.266 OA
ENDBRANCH   1  15
TORSDOF 2
