REMARK  8 active torsions:
REMARK  status: ('A' for Active; 'I' for Inactive)
REMARK    1  A    between atoms: O_2  and  C_3 
REMARK    2  A    between atoms: C_3  and  C_4 
REMARK    3  A    between atoms: C_4  and  C_6 
REMARK    4  A    between atoms: C_4  and  N_10 
REMARK    5  A    between atoms: C_6  and  C_7 
REMARK    6  A    between atoms: C_7  and  O_9 
REMARK       I    between atoms: N_10  and  C_11 
REMARK    7  A    between atoms: C_11  and  C_13 
REMARK    8  A    between atoms: C_13  and  C_14 
ROOT
HETATM    1  N   UNL     1       5.079   1.754   1.901  1.00  0.00    -0.349 N 
HETATM    2  C   UNL     1       6.394   1.755   2.317  1.00  0.00     0.224 C 
HETATM    3  O   UNL     1       7.241   0.987   1.867  1.00  0.00    -0.273 OA
HETATM    4  H   UNL     1       4.407   2.284   2.451  1.00  0.00     0.163 HD
ENDROOT
BRANCH   1   5
HETATM    5  C   UNL     1       4.486   0.816   0.906  1.00  0.00     0.060 C 
HETATM    6  C   UNL     1       4.836  -0.643   1.270  1.00  0.00     0.041 C 
BRANCH   5   7
HETATM    7  C   UNL     1       2.936   0.973   0.966  1.00  0.00     0.198 C 
BRANCH   7   8
HETATM    8  O   UNL     1       2.509   0.777   2.321  1.00  0.00    -0.393 OA
HETATM    9  C   UNL     1       1.094   0.792   2.443  1.00  0.00     0.201 C 
ENDBRANCH   7   8
ENDBRANCH   5   7
BRANCH   5  10
HETATM   10  C   UNL     1       5.006   1.183  -0.499  1.00  0.00     0.142 C 
BRANCH  10  11
HETATM   11  C   UNL     1       4.433   0.317  -1.583  1.00  0.00     0.141 C 
HETATM   12  O   UNL     1       3.350   0.527  -2.115  1.00  0.00    -0.650 OA
BRANCH  11  13
HETATM   13  O   UNL     1       5.200  -0.749  -1.896  1.00  0.00    -0.776 OA
HETATM   14  H   UNL     1       6.031  -0.816  -1.385  1.00  0.00     0.167 HD
ENDBRANCH  11  13
ENDBRANCH  10  11
ENDBRANCH   5  10
ENDBRANCH   1   5
BRANCH   2  15
HETATM   15  C   UNL     1       6.733   2.805   3.361  1.00  0.00     0.161 C 
BRANCH  15  16
HETATM   16  C   UNL     1       6.880   2.223   4.721  1.00  0.00     0.043 A 
HETATM   17  C   UNL     1       7.762   1.207   5.167  1.00  0.00     0.061 A 
HETATM   18  C   UNL     1       7.491   1.085   6.506  1.00  0.00     0.074 A 
HETATM   19  C   UNL     1       7.997   0.213   7.583  1.00  0.00     0.079 C 
HETATM   20  O   UNL     1       6.531   1.981   6.853  1.00  0.00    -0.243 OA
HETATM   21  N   UNL     1       6.147   2.703   5.737  1.00  0.00    -0.265 N 
ATOM     22  HN  UNL     1       5.450   3.447   5.695  1.00  0.00     0.194 HD
ENDBRANCH  15  16
ENDBRANCH   2  15
TORSDOF 8
