REMARK  4 active torsions:
REMARK  status: ('A' for Active; 'I' for Inactive)
REMARK    1  A    between atoms: C_2  and  C_5 
REMARK       I    between atoms: C_5  and  N_7 
REMARK    2  A    between atoms: N_7  and  C_8 
REMARK    3  A    between atoms: C_8  and  C_9 
REMARK    4  A    between atoms: C_15  and  N_16 
ROOT
HETATM    1  C   UNL     1       6.362   0.231   3.132  1.00  0.00     0.004 A 
HETATM    2  C   UNL     1       7.215   1.359   3.130  1.00  0.00     0.014 A 
HETATM    3  C   UNL     1       8.582   1.221   3.292  1.00  0.00     0.018 A 
HETATM    4  C   UNL     1       9.063  -0.053   3.451  1.00  0.00     0.089 A 
HETATM    5  N   UNL     1       8.282  -1.153   3.421  1.00  0.00    -0.352 N 
ATOM      6  HN  UNL     1       8.706  -2.074   3.532  1.00  0.00     0.166 HD
HETATM    7  C   UNL     1       6.937  -1.049   3.245  1.00  0.00     0.111 A 
ENDROOT
BRANCH   1   8
HETATM    8  C   UNL     1       4.890   0.532   3.087  1.00  0.00     0.165 C 
BRANCH   8   9
HETATM    9  N   UNL     1       4.382   0.663   1.735  1.00  0.00    -0.356 N 
HETATM   10  C   UNL     1       3.029   0.817   1.522  1.00  0.00     0.225 C 
HETATM   11  O   UNL     1       2.245   0.941   2.461  1.00  0.00    -0.273 OA
HETATM   12  H   UNL     1       4.999   0.426   0.968  1.00  0.00     0.162 HD
BRANCH  10  13
HETATM   13  C   UNL     1       2.572   0.798   0.053  1.00  0.00     0.030 C 
HETATM   14  C   UNL     1       1.051   1.027  -0.001  1.00  0.00     0.024 C 
HETATM   15  C   UNL     1       2.884  -0.565  -0.582  1.00  0.00     0.024 C 
HETATM   16  C   UNL     1       3.271   1.916  -0.730  1.00  0.00     0.024 C 
ENDBRANCH  10  13
ENDBRANCH   8   9
ENDBRANCH   1   8
BRANCH   7  17
HETATM   17  N   UNL     1       6.282  -2.256   3.144  1.00  0.00    -0.363 N 
HETATM   18  C   UNL     1       6.823  -3.404   3.905  1.00  0.00     0.150 C 
HETATM   19  C   UNL     1       6.637  -4.712   3.117  1.00  0.00     0.187 C 
HETATM   20  O   UNL     1       5.269  -4.910   2.726  1.00  0.00    -0.388 OA
HETATM   21  C   UNL     1       4.847  -3.825   1.894  1.00  0.00     0.187 C 
HETATM   22  C   UNL     1       4.932  -2.480   2.628  1.00  0.00     0.150 C 
ENDBRANCH   7  17
TORSDOF 4
