REMARK  7 active torsions:
REMARK  status: ('A' for Active; 'I' for Inactive)
REMARK    1  A    between atoms: O_2  and  C_3 
REMARK    2  A    between atoms: C_8  and  O_9 
REMARK    3  A    between atoms: O_9  and  C_10 
REMARK    4  A    between atoms: C_10  and  C_11 
REMARK    5  A    between atoms: C_11  and  N_12 
REMARK    6  A    between atoms: C_13  and  C_22 
REMARK    7  A    between atoms: C_22  and  O_25 
ROOT
HETATM    1  N   UNL     1       3.580  -4.155  -0.835  1.00  0.00    -0.330 N 
HETATM    2  C   UNL     1       3.685  -5.539  -1.002  1.00  0.00     0.119 A 
HETATM    3  N   UNL     1       3.138  -5.904  -2.147  1.00  0.00    -0.341 N 
ATOM      4  HN  UNL     1       3.078  -6.852  -2.519  1.00  0.00     0.167 HD
HETATM    5  C   UNL     1       2.669  -4.769  -2.734  1.00  0.00     0.060 A 
HETATM    6  C   UNL     1       2.015  -4.637  -3.969  1.00  0.00     0.032 A 
HETATM    7  C   UNL     1       1.608  -3.371  -4.395  1.00  0.00     0.002 A 
HETATM    8  C   UNL     1       1.842  -2.258  -3.597  1.00  0.00     0.002 A 
HETATM    9  C   UNL     1       2.484  -2.376  -2.358  1.00  0.00     0.032 A 
HETATM   10  C   UNL     1       2.909  -3.650  -1.939  1.00  0.00     0.062 A 
ENDROOT
BRANCH   1  11
HETATM   11  C   UNL     1       4.119  -3.433   0.305  1.00  0.00     0.157 C 
BRANCH  11  12
HETATM   12  C   UNL     1       3.961  -1.916   0.363  1.00  0.00     0.196 C 
BRANCH  12  13
HETATM   13  O   UNL     1       4.651  -1.381   1.488  1.00  0.00    -0.347 OA
BRANCH  13  14
HETATM   14  C   UNL     1       5.945  -0.946   1.347  1.00  0.00     0.102 A 
HETATM   15  C   UNL     1       6.817  -1.086   0.251  1.00  0.00     0.101 A 
HETATM   16  C   UNL     1       8.123  -0.582   0.356  1.00  0.00     0.039 A 
HETATM   17  C   UNL     1       8.554   0.064   1.514  1.00  0.00     0.003 A 
HETATM   18  C   UNL     1       7.689   0.215   2.591  1.00  0.00     0.003 A 
HETATM   19  C   UNL     1       6.394  -0.291   2.502  1.00  0.00     0.039 A 
BRANCH  15  20
HETATM   20  O   UNL     1       6.404  -1.775  -0.859  1.00  0.00    -0.353 OA
HETATM   21  C   UNL     1       6.998  -1.405  -2.101  1.00  0.00     0.210 C 
ENDBRANCH  15  20
ENDBRANCH  13  14
ENDBRANCH  12  13
ENDBRANCH  11  12
ENDBRANCH   1  11
BRANCH   2  22
HETATM   22  C   UNL     1       4.364  -6.533  -0.075  1.00  0.00     0.109 C 
HETATM   23  C   UNL     1       3.689  -7.911  -0.174  1.00  0.00     0.054 C 
HETATM   24  C   UNL     1       5.850  -6.663  -0.406  1.00  0.00     0.054 C 
BRANCH  22  25
HETATM   25  O   UNL     1       4.244  -6.091   1.278  1.00  0.00    -0.383 OA
HETATM   26  H   UNL     1       3.359  -6.351   1.588  1.00  0.00     0.211 HD
ENDBRANCH  22  25
ENDBRANCH   2  22
TORSDOF 7
