REMARK  5 active torsions:
REMARK  status: ('A' for Active; 'I' for Inactive)
REMARK    1  A    between atoms: C_2  and  C_3 
REMARK    2  A    between atoms: C_3  and  C_4 
REMARK    3  A    between atoms: C_3  and  N_10 
REMARK    4  A    between atoms: C_4  and  N_5 
REMARK       I    between atoms: N_10  and  C_11 
REMARK       I    between atoms: C_11  and  N_13 
REMARK    5  A    between atoms: N_13  and  C_14 
ROOT
HETATM    1  N   UNL     1       4.584   1.547  -0.580  1.00  0.00    -0.337 N 
HETATM    2  C   UNL     1       5.149   2.752  -0.939  1.00  0.00     0.321 C 
HETATM    3  O   UNL     1       4.467   3.717  -1.260  1.00  0.00    -0.247 OA
HETATM    4  N   UNL     1       6.525   2.725  -0.886  1.00  0.00    -0.309 N 
HETATM    5  H   UNL     1       5.162   0.928  -0.034  1.00  0.00     0.164 HD
HETATM    6  H   UNL     1       6.947   1.831  -1.088  1.00  0.00     0.170 HD
ENDROOT
BRANCH   1   7
HETATM    7  C   UNL     1       3.130   1.462  -0.365  1.00  0.00     0.114 C 
BRANCH   7   8
HETATM    8  C   UNL     1       2.717  -0.006  -0.137  1.00  0.00     0.022 C 
HETATM    9  C   UNL     1       1.213  -0.239  -0.209  1.00  0.00     0.007 C 
ENDBRANCH   7   8
BRANCH   7  10
HETATM   10  C   UNL     1       2.622   2.423   0.763  1.00  0.00     0.297 C 
BRANCH  10  11
HETATM   11  N   UNL     1       2.990   2.089   2.151  1.00  0.00     0.090 N 
HETATM   12  C   UNL     1       2.423   3.071   3.092  1.00  0.00     0.272 C 
HETATM   13  C   UNL     1       3.353   3.057   4.304  1.00  0.00     0.032 C 
HETATM   14  C   UNL     1       4.453   2.080   3.936  1.00  0.00     0.032 C 
HETATM   15  C   UNL     1       4.426   2.084   2.421  1.00  0.00     0.272 C 
ENDBRANCH  10  11
ENDBRANCH   7  10
ENDBRANCH   1   7
BRANCH   4  16
HETATM   16  C   UNL     1       7.336   3.877  -1.029  1.00  0.00     0.038 A 
HETATM   17  C   UNL     1       6.880   5.154  -0.703  1.00  0.00     0.046 A 
HETATM   18  C   UNL     1       7.711   6.237  -0.938  1.00  0.00     0.090 A 
HETATM   19  N   UNL     1       8.955   6.128  -1.448  1.00  0.00    -0.375 N 
HETATM   20  C   UNL     1       9.386   4.880  -1.721  1.00  0.00     0.090 A 
ATOM     21  HN  UNL     1       9.539   6.947  -1.618  1.00  0.00     0.164 HD
HETATM   22  C   UNL     1       8.633   3.732  -1.513  1.00  0.00     0.046 A 
ENDBRANCH   4  16
TORSDOF 5
