REMARK  5 active torsions:
REMARK  status: ('A' for Active; 'I' for Inactive)
REMARK    1  A    between atoms: C_2  and  N_3 
REMARK    2  A    between atoms: C_2  and  C_10 
REMARK       I    between atoms: C_10  and  N_12 
REMARK    3  A    between atoms: N_12  and  C_13 
REMARK    4  A    between atoms: C_13  and  C_14 
REMARK    5  A    between atoms: C_14  and  N_15 
ROOT
HETATM    1  C   UNL     1       3.006   0.296  -1.570  1.00  0.00     0.251 C 
HETATM    2  O   UNL     1       2.282   0.659  -2.495  1.00  0.00    -0.271 OA
HETATM    3  N   UNL     1       4.372   0.152  -1.738  1.00  0.00    -0.358 N 
HETATM    4  H   UNL     1       4.801  -0.498  -1.083  1.00  0.00     0.162 HD
ENDROOT
BRANCH   3   5
HETATM    5  C   UNL     1       4.950   0.317  -3.064  1.00  0.00     0.143 C 
BRANCH   5   6
HETATM    6  C   UNL     1       4.884   1.767  -3.559  1.00  0.00     0.151 C 
BRANCH   6   7
HETATM    7  N   UNL     1       5.417   1.925  -4.893  1.00  0.00    -0.329 N 
HETATM    8  C   UNL     1       6.706   2.236  -5.199  1.00  0.00     0.201 A 
HETATM    9  N   UNL     1       6.838   2.324  -6.501  1.00  0.00    -0.295 N 
HETATM   10  N   UNL     1       5.605   2.085  -7.060  1.00  0.00    -0.288 N 
ATOM     11  HN  UNL     1       7.699   2.532  -7.007  1.00  0.00     0.187 HD
HETATM   12  C   UNL     1       4.746   1.856  -6.087  1.00  0.00     0.095 A 
ATOM     13  HN  UNL     1       5.391   2.085  -8.057  1.00  0.00     0.188 HD
HETATM   14  C   UNL     1       3.300   1.574  -6.239  1.00  0.00     0.091 C 
ENDBRANCH   6   7
ENDBRANCH   5   6
ENDBRANCH   3   5
BRANCH   1  15
HETATM   15  C   UNL     1       2.484   0.024  -0.134  1.00  0.00     0.311 C 
HETATM   16  C   UNL     1       0.996   0.395  -0.097  1.00  0.00     0.053 C 
BRANCH  15  17
HETATM   17  N   UNL     1       2.887  -1.327   0.328  1.00  0.00     0.110 N 
HETATM   18  C   UNL     1       2.325  -2.498  -0.375  1.00  0.00     0.220 C 
HETATM   19  C   UNL     1       3.182  -2.925  -1.568  1.00  0.00     0.043 C 
HETATM   20  C   UNL     1       2.325  -3.629   0.668  1.00  0.00     0.037 C 
HETATM   21  C   UNL     1       3.117  -3.073   1.835  1.00  0.00     0.037 C 
HETATM   22  C   UNL     1       2.811  -1.580   1.781  1.00  0.00     0.220 C 
HETATM   23  C   UNL     1       1.482  -1.301   2.494  1.00  0.00     0.043 C 
ENDBRANCH  15  17
ENDBRANCH   1  15
TORSDOF 5
