REMARK  4 active torsions:
REMARK  status: ('A' for Active; 'I' for Inactive)
REMARK    1  A    between atoms: C_2  and  N_3 
REMARK    2  A    between atoms: C_2  and  C_14 
REMARK       I    between atoms: N_3  and  C_4 
REMARK    3  A    between atoms: C_4  and  C_6 
REMARK    4  A    between atoms: C_6  and  N_7 
ROOT
HETATM    1  C   UNL     1       1.165  -0.189  -0.763  1.00  0.00     0.033 C 
HETATM    2  C   UNL     1       2.533  -0.063  -0.080  1.00  0.00     0.089 C 
ENDROOT
BRANCH   2   3
HETATM    3  N   UNL     1       3.478  -0.967  -0.734  1.00  0.00    -0.355 N 
HETATM    4  C   UNL     1       3.631  -2.285  -0.352  1.00  0.00     0.236 C 
HETATM    5  O   UNL     1       3.057  -2.782   0.615  1.00  0.00    -0.272 OA
HETATM    6  H   UNL     1       4.026  -0.632  -1.522  1.00  0.00     0.162 HD
BRANCH   4   7
HETATM    7  C   UNL     1       4.632  -3.078  -1.191  1.00  0.00     0.234 C 
BRANCH   7   8
HETATM    8  N   UNL     1       5.974  -2.998  -0.622  1.00  0.00    -0.316 N 
HETATM    9  C   UNL     1       6.368  -3.920   0.333  1.00  0.00     0.095 A 
HETATM   10  C   UNL     1       7.597  -3.884   0.864  1.00  0.00     0.017 A 
HETATM   11  C   UNL     1       8.528  -2.868   0.446  1.00  0.00     0.007 A 
HETATM   12  C   UNL     1       8.170  -1.944  -0.455  1.00  0.00     0.074 A 
HETATM   13  C   UNL     1       6.802  -1.960  -1.039  1.00  0.00     0.247 A 
HETATM   14  O   UNL     1       6.470  -1.091  -1.844  1.00  0.00    -0.268 OA
ENDBRANCH   7   8
ENDBRANCH   4   7
ENDBRANCH   2   3
BRANCH   2  15
HETATM   15  C   UNL     1       3.080   1.401   0.010  1.00  0.00    -0.019 C 
HETATM   16  C   UNL     1       2.106   2.294   0.834  1.00  0.00     0.016 C 
HETATM   17  C   UNL     1       2.649   3.727   0.979  1.00  0.00    -0.013 C 
HETATM   18  C   UNL     1       2.826   4.339  -0.419  1.00  0.00     0.009 C 
HETATM   19  C   UNL     1       4.005   3.688   1.696  1.00  0.00     0.009 C 
HETATM   20  C   UNL     1       3.819   3.498  -1.237  1.00  0.00    -0.013 C 
HETATM   21  C   UNL     1       5.172   3.459  -0.510  1.00  0.00     0.009 C 
HETATM   22  C   UNL     1       3.275   2.064  -1.381  1.00  0.00     0.016 C 
HETATM   23  C   UNL     1       4.999   2.842   0.887  1.00  0.00    -0.013 C 
HETATM   24  C   UNL     1       4.454   1.411   0.745  1.00  0.00     0.016 C 
ENDBRANCH   2  15
TORSDOF 4
