REMARK  3 active torsions:
REMARK  status: ('A' for Active; 'I' for Inactive)
REMARK    1  A    between atoms: O_2  and  C_3 
REMARK    2  A    between atoms: C_9  and  N_10 
REMARK       I    between atoms: N_10  and  C_11 
REMARK       I    between atoms: C_11  and  N_13 
REMARK    3  A    between atoms: N_13  and  C_14 
ROOT
HETATM    1  N   UNL     1       0.929  -2.298  -0.268  1.00  0.00    -0.305 N 
HETATM    2  C   UNL     1       0.164  -1.155  -0.400  1.00  0.00     0.321 C 
HETATM    3  O   UNL     1       0.441  -0.223  -1.146  1.00  0.00    -0.247 OA
HETATM    4  N   UNL     1      -0.961  -1.171   0.384  1.00  0.00    -0.336 N 
HETATM    5  H   UNL     1       0.422  -3.173  -0.214  1.00  0.00     0.171 HD
HETATM    6  H   UNL     1      -1.120  -1.974   0.974  1.00  0.00     0.164 HD
ENDROOT
BRANCH   1   7
HETATM    7  C   UNL     1       2.236  -2.377  -0.808  1.00  0.00     0.087 A 
HETATM    8  C   UNL     1       2.727  -3.545  -1.407  1.00  0.00     0.169 A 
HETATM    9  N   UNL     1       3.986  -3.671  -1.889  1.00  0.00    -0.345 N 
HETATM   10  C   UNL     1       4.787  -2.588  -1.802  1.00  0.00     0.090 A 
ATOM     11  HN  UNL     1       4.314  -4.545  -2.299  1.00  0.00     0.167 HD
HETATM   12  C   UNL     1       4.397  -1.384  -1.248  1.00  0.00     0.019 A 
HETATM   13  C   UNL     1       3.106  -1.284  -0.740  1.00  0.00     0.035 A 
BRANCH   8  14
HETATM   14  O   UNL     1       1.848  -4.605  -1.572  1.00  0.00    -0.339 OA
HETATM   15  C   UNL     1       2.322  -5.527  -2.557  1.00  0.00     0.211 C 
ENDBRANCH   8  14
ENDBRANCH   1   7
BRANCH   4  16
HETATM   16  C   UNL     1      -2.042  -0.200   0.239  1.00  0.00     0.121 C 
HETATM   17  C   UNL     1      -1.655   1.288   0.350  1.00  0.00     0.057 C 
HETATM   18  C   UNL     1      -2.395   1.990  -0.801  1.00  0.00     0.275 C 
HETATM   19  N   UNL     1      -3.409   1.023  -1.224  1.00  0.00     0.095 N 
HETATM   20  C   UNL     1      -3.910   1.227  -2.584  1.00  0.00     0.273 C 
HETATM   21  C   UNL     1      -2.724  -0.273  -1.128  1.00  0.00     0.245 C 
HETATM   22  C   UNL     1      -4.895   0.106  -2.955  1.00  0.00     0.030 C 
HETATM   23  C   UNL     1      -4.329  -1.297  -2.700  1.00  0.00     0.004 C 
HETATM   24  C   UNL     1      -3.732  -1.400  -1.296  1.00  0.00     0.038 C 
ENDBRANCH   4  16
TORSDOF 3
