REMARK  6 active torsions:
REMARK  status: ('A' for Active; 'I' for Inactive)
REMARK    1  A    between atoms: C_2  and  N_7 
REMARK    2  A    between atoms: N_3  and  C_15 
REMARK    3  A    between atoms: C_11  and  C_14 
REMARK    4  A    between atoms: C_14  and  C_17 
REMARK    5  A    between atoms: C_15  and  C_16 
REMARK    6  A    between atoms: C_16  and  O_24 
REMARK       I    between atoms: C_17  and  N_21 
ROOT
HETATM    1  C   UNL     1       0.363  -0.803  -0.180  1.00  0.00     0.122 A 
HETATM    2  C   UNL     1      -0.829  -1.580  -0.275  1.00  0.00     0.135 A 
HETATM    3  N   UNL     1       1.509   1.069  -0.133  1.00  0.00    -0.324 N 
HETATM    4  C   UNL     1       0.240   0.576  -0.281  1.00  0.00     0.140 A 
HETATM    5  N   UNL     1       1.694  -1.135   0.018  1.00  0.00    -0.346 N 
ATOM      6  HN  UNL     1       2.087  -2.071   0.116  1.00  0.00     0.167 HD
HETATM    7  C   UNL     1       2.345   0.006   0.054  1.00  0.00     0.185 A 
HETATM    8  N   UNL     1      -1.995  -0.870  -0.411  1.00  0.00    -0.337 N 
ATOM      9  HN  UNL     1      -2.890  -1.358  -0.441  1.00  0.00     0.168 HD
HETATM   10  N   UNL     1      -0.880   1.286  -0.471  1.00  0.00    -0.336 N 
ATOM     11  HN  UNL     1      -0.914   2.300  -0.575  1.00  0.00     0.168 HD
HETATM   12  C   UNL     1      -1.954   0.477  -0.505  1.00  0.00     0.183 A 
ENDROOT
BRANCH   2  13
HETATM   13  N   UNL     1      -0.881  -2.977  -0.191  1.00  0.00    -0.360 N 
HETATM   14  C   UNL     1      -2.214  -3.626  -0.201  1.00  0.00     0.094 C 
HETATM   15  C   UNL     1      -2.070  -5.017   0.456  1.00  0.00     0.026 C 
HETATM   16  C   UNL     1      -0.983  -5.865  -0.202  1.00  0.00     0.004 C 
HETATM   17  C   UNL     1       0.341  -5.112  -0.221  1.00  0.00     0.020 C 
HETATM   18  C   UNL     1       0.210  -3.720  -0.835  1.00  0.00     0.125 C 
BRANCH  14  19
HETATM   19  C   UNL     1      -2.807  -3.700  -1.618  1.00  0.00     0.127 C 
BRANCH  19  20
HETATM   20  C   UNL     1      -4.193  -4.295  -1.630  1.00  0.00     0.217 C 
HETATM   21  O   UNL     1      -4.450  -5.380  -2.138  1.00  0.00    -0.274 OA
HETATM   22  N   UNL     1      -5.170  -3.550  -1.042  1.00  0.00    -0.370 N 
HETATM   23  H   UNL     1      -5.021  -2.591  -0.761  1.00  0.00     0.159 HD
HETATM   24  H   UNL     1      -6.119  -3.900  -1.096  1.00  0.00     0.159 HD
ENDBRANCH  19  20
ENDBRANCH  14  19
ENDBRANCH   2  13
BRANCH   3  25
HETATM   25  C   UNL     1       1.882   2.468  -0.050  1.00  0.00     0.171 C 
BRANCH  25  26
HETATM   26  C   UNL     1       2.285   3.114  -1.384  1.00  0.00     0.097 C 
HETATM   27  C   UNL     1       3.457   2.473  -2.102  1.00  0.00     0.068 C 
HETATM   28  C   UNL     1       4.052   3.623  -2.898  1.00  0.00     0.170 C 
HETATM   29  O   UNL     1       3.708   4.842  -2.229  1.00  0.00    -0.388 OA
HETATM   30  C   UNL     1       2.820   4.530  -1.145  1.00  0.00     0.207 C 
BRANCH  26  31
HETATM   31  O   UNL     1       1.173   3.200  -2.284  1.00  0.00    -0.386 OA
HETATM   32  H   UNL     1       0.646   2.381  -2.238  1.00  0.00     0.210 HD
ENDBRANCH  26  31
ENDBRANCH  25  26
ENDBRANCH   3  25
TORSDOF 6
