REMARK  6 active torsions:
REMARK  status: ('A' for Active; 'I' for Inactive)
REMARK    1  A    between atoms: N_1  and  C1*_2 
REMARK    2  A    between atoms: C2*_8  and  O2*_15 
REMARK    3  A    between atoms: C_11  and  N_16 
REMARK    4  A    between atoms: C3*_12  and  O3*_17 
REMARK    5  A    between atoms: C4*_13  and  C5*_18 
REMARK    6  A    between atoms: C5*_18  and  O5*_19 
ROOT
HETATM    1  N   UNL     1      -2.280   2.320  -1.443  1.00  0.00    -0.266 N 
HETATM    2  C   UNL     1      -2.908   3.248  -2.228  1.00  0.00     0.331 A 
HETATM    3  N   UNL     1      -3.840   2.820  -3.126  1.00  0.00    -0.285 N 
ATOM      4  HN  UNL     1      -4.303   3.490  -3.740  1.00  0.00     0.173 HD
HETATM    5  N   UNL     1      -3.521   0.621  -2.451  1.00  0.00    -0.329 N 
ATOM      6  HN  UNL     1      -3.742  -0.369  -2.561  1.00  0.00     0.169 HD
HETATM    7  C   UNL     1      -2.650   1.021  -1.600  1.00  0.00     0.192 A 
HETATM    8  C   UNL     1      -4.134   1.570  -3.197  1.00  0.00     0.159 A 
HETATM    9  O   UNL     1      -2.664   4.443  -2.119  1.00  0.00    -0.246 OA
ENDROOT
BRANCH   1  10
HETATM   10  C1* UNL     1      -1.406   2.665  -0.337  1.00  0.00     0.265 C 
HETATM   11  C2* UNL     1      -0.587   3.966  -0.350  1.00  0.00     0.198 C 
HETATM   12  C3* UNL     1      -1.405   4.944   0.496  1.00  0.00     0.182 C 
HETATM   13  C4* UNL     1      -2.400   4.070   1.261  1.00  0.00     0.179 C 
HETATM   14  O4* UNL     1      -2.196   2.692   0.866  1.00  0.00    -0.353 OA
BRANCH  11  15
HETATM   15  O2* UNL     1       0.704   3.758   0.273  1.00  0.00    -0.388 OA
HETATM   16  H2* UNL     1       0.594   3.165   1.040  1.00  0.00     0.210 HD
ENDBRANCH  11  15
BRANCH  12  17
HETATM   17  O3* UNL     1      -0.599   5.687   1.418  1.00  0.00    -0.390 OA
HETATM   18  H3* UNL     1       0.186   5.147   1.626  1.00  0.00     0.210 HD
ENDBRANCH  12  17
BRANCH  13  19
HETATM   19  C5* UNL     1      -3.859   4.452   0.980  1.00  0.00     0.198 C 
BRANCH  19  20
HETATM   20  O5* UNL     1      -4.732   3.643   1.769  1.00  0.00    -0.398 OA
HETATM   21  H5* UNL     1      -4.529   2.717   1.539  1.00  0.00     0.209 HD
ENDBRANCH  19  20
ENDBRANCH  13  19
ENDBRANCH   1  10
BRANCH   8  22
HETATM   22  N   UNL     1      -5.084   1.161  -4.062  1.00  0.00    -0.274 NA
HETATM   23  H   UNL     1      -5.294   1.844  -4.784  1.00  0.00     0.127 HD
HETATM   24  H   UNL     1      -4.964   0.212  -4.389  1.00  0.00     0.127 HD
ENDBRANCH   8  22
TORSDOF 6
