REMARK  5 active torsions:
REMARK  status: ('A' for Active; 'I' for Inactive)
REMARK    1  A    between atoms: N_2  and  C_3 
REMARK    2  A    between atoms: N_13  and  C_14 
REMARK    3  A    between atoms: C_14  and  C_15 
REMARK    4  A    between atoms: C_15  and  O_16 
REMARK    5  A    between atoms: C_15  and  C_17 
ROOT
HETATM    1  C   UNL     1       3.281  -0.947  -0.735  1.00  0.00     0.112 A 
HETATM    2  N   UNL     1       4.164  -0.506  -1.654  1.00  0.00    -0.341 N 
ATOM      3  HN  UNL     1       4.451   0.473  -1.670  1.00  0.00     0.167 HD
HETATM    4  C   UNL     1       4.662  -1.382  -2.552  1.00  0.00     0.183 A 
HETATM    5  N   UNL     1       4.384  -2.683  -2.677  1.00  0.00    -0.337 N 
ATOM      6  HN  UNL     1       4.790  -3.283  -3.395  1.00  0.00     0.168 HD
HETATM    7  C   UNL     1       3.510  -3.114  -1.752  1.00  0.00     0.137 A 
HETATM    8  N   UNL     1       3.052  -4.397  -1.637  1.00  0.00    -0.336 N 
ATOM      9  HN  UNL     1       3.281  -5.193  -2.232  1.00  0.00     0.168 HD
HETATM   10  C   UNL     1       2.252  -4.381  -0.592  1.00  0.00     0.185 A 
HETATM   11  N   UNL     1       2.167  -3.139  -0.032  1.00  0.00    -0.335 N 
HETATM   12  C   UNL     1       2.964  -2.298  -0.776  1.00  0.00     0.118 A 
ENDROOT
BRANCH  11  13
HETATM   13  C   UNL     1       1.441  -2.728   1.159  1.00  0.00     0.167 C 
BRANCH  13  14
HETATM   14  C   UNL     1       0.753  -3.826   1.994  1.00  0.00     0.171 C 
BRANCH  14  15
HETATM   15  O   UNL     1       1.700  -4.768   2.497  1.00  0.00    -0.389 OA
HETATM   16  H   UNL     1       2.215  -4.335   3.202  1.00  0.00     0.210 HD
ENDBRANCH  14  15
BRANCH  14  17
HETATM   17  C   UNL     1      -0.078  -3.265   3.139  1.00  0.00    -0.006 A 
HETATM   18  C   UNL     1      -1.469  -3.501   3.125  1.00  0.00     0.011 A 
HETATM   19  C   UNL     1      -2.306  -2.993   4.123  1.00  0.00     0.001 A 
HETATM   20  C   UNL     1      -1.773  -2.229   5.157  1.00  0.00     0.002 A 
HETATM   21  C   UNL     1      -0.401  -1.997   5.204  1.00  0.00     0.024 A 
HETATM   22  C   UNL     1       0.442  -2.521   4.216  1.00  0.00     0.043 A 
HETATM   23 CL   UNL     1       2.136  -2.243   4.422  1.00  0.00    -0.084 Cl
ENDBRANCH  14  17
ENDBRANCH  13  14
ENDBRANCH  11  13
BRANCH   1  24
HETATM   24  N   UNL     1       2.755  -0.090   0.244  1.00  0.00    -0.281 NA
HETATM   25  C   UNL     1       2.717   1.302  -0.191  1.00  0.00     0.114 C 
HETATM   26  H   UNL     1       3.382  -0.164   1.044  1.00  0.00     0.128 HD
ENDBRANCH   1  24
TORSDOF 5
