REMARK  5 active torsions:
REMARK  status: ('A' for Active; 'I' for Inactive)
REMARK    1  A    between atoms: C_2  and  O_3 
REMARK    2  A    between atoms: O_3  and  C_4 
REMARK    3  A    between atoms: C_6  and  N_7 
REMARK       I    between atoms: N_7  and  C_8 
REMARK    4  A    between atoms: C_8  and  C_10 
REMARK    5  A    between atoms: C_10  and  N_11 
ROOT
HETATM    1  N   UNL     1       6.790  -2.312   3.674  1.00  0.00    -0.354 N 
HETATM    2  C   UNL     1       7.880  -3.162   3.575  1.00  0.00     0.236 C 
HETATM    3  O   UNL     1       8.501  -3.345   2.528  1.00  0.00    -0.272 OA
HETATM    4  H   UNL     1       6.411  -2.140   4.603  1.00  0.00     0.162 HD
ENDROOT
BRANCH   1   5
HETATM    5  C   UNL     1       6.180  -1.723   2.475  1.00  0.00     0.098 C 
HETATM    6  C   UNL     1       5.549  -0.322   2.583  1.00  0.00     0.059 C 
HETATM    7  C   UNL     1       4.547  -0.809   1.484  1.00  0.00     0.133 C 
HETATM    8  C   UNL     1       4.741  -2.242   2.114  1.00  0.00     0.006 C 
HETATM    9  C   UNL     1       4.781  -3.499   1.249  1.00  0.00     0.014 C 
HETATM   10  C   UNL     1       3.719  -2.567   3.211  1.00  0.00     0.014 C 
HETATM   11  C   UNL     1       4.426  -4.648   2.204  1.00  0.00     0.001 C 
HETATM   12  C   UNL     1       3.979  -4.027   3.524  1.00  0.00     0.001 C 
BRANCH   7  13
HETATM   13  O   UNL     1       3.202  -0.287   1.516  1.00  0.00    -0.385 OA
BRANCH  13  14
HETATM   14  C   UNL     1       3.060   1.124   1.387  1.00  0.00     0.163 C 
HETATM   15  C   UNL     1       1.581   1.458   1.371  1.00  0.00     0.033 C 
ENDBRANCH  13  14
ENDBRANCH   7  13
ENDBRANCH   1   5
BRANCH   2  16
HETATM   16  C   UNL     1       8.291  -3.846   4.873  1.00  0.00     0.234 C 
BRANCH  16  17
HETATM   17  N   UNL     1       9.313  -3.086   5.574  1.00  0.00    -0.316 N 
HETATM   18  C   UNL     1      10.654  -3.336   5.334  1.00  0.00     0.095 A 
HETATM   19  C   UNL     1      11.609  -2.686   6.010  1.00  0.00     0.017 A 
HETATM   20  C   UNL     1      11.250  -1.711   7.008  1.00  0.00     0.007 A 
HETATM   21  C   UNL     1       9.963  -1.414   7.234  1.00  0.00     0.074 A 
HETATM   22  C   UNL     1       8.891  -2.103   6.468  1.00  0.00     0.247 A 
HETATM   23  O   UNL     1       7.713  -1.812   6.656  1.00  0.00    -0.268 OA
ENDBRANCH  16  17
ENDBRANCH   2  16
TORSDOF 5
