REMARK  4 active torsions:
REMARK  status: ('A' for Active; 'I' for Inactive)
REMARK    1  A    between atoms: C_2  and  C_5 
REMARK       I    between atoms: C_5  and  N_7 
REMARK    2  A    between atoms: N_7  and  C_8 
REMARK    3  A    between atoms: C_8  and  C_9 
REMARK    4  A    between atoms: C_12  and  N_16 
ROOT
HETATM    1  C   UNL     1       6.440  -0.902   2.825  1.00  0.00    -0.025 A 
HETATM    2  C   UNL     1       7.134   0.301   2.803  1.00  0.00     0.014 A 
HETATM    3  C   UNL     1       8.528   0.296   2.701  1.00  0.00     0.049 A 
HETATM    4  C   UNL     1       9.235  -0.905   2.622  1.00  0.00     0.103 A 
HETATM    5  N   UNL     1       8.561  -2.076   2.675  1.00  0.00    -0.352 N 
ATOM      6  HN  UNL     1       9.063  -2.963   2.643  1.00  0.00     0.166 HD
HETATM    7  C   UNL     1       7.207  -2.055   2.772  1.00  0.00     0.098 A 
ENDROOT
BRANCH   1   8
HETATM    8  C   UNL     1       4.944  -0.951   2.905  1.00  0.00     0.162 C 
BRANCH   8   9
HETATM    9  N   UNL     1       4.456  -0.928   4.266  1.00  0.00    -0.356 N 
HETATM   10  C   UNL     1       3.100  -0.962   4.515  1.00  0.00     0.225 C 
HETATM   11  O   UNL     1       2.280  -0.999   3.598  1.00  0.00    -0.273 OA
HETATM   12  H   UNL     1       5.121  -0.887   5.025  1.00  0.00     0.162 HD
BRANCH  10  13
HETATM   13  C   UNL     1       2.687  -0.956   6.000  1.00  0.00     0.030 C 
HETATM   14  C   UNL     1       1.151  -0.990   6.107  1.00  0.00     0.024 C 
HETATM   15  C   UNL     1       3.196   0.320   6.686  1.00  0.00     0.024 C 
HETATM   16  C   UNL     1       3.254  -2.198   6.702  1.00  0.00     0.024 C 
ENDBRANCH  10  13
ENDBRANCH   8   9
ENDBRANCH   1   8
BRANCH   4  17
HETATM   17  N   UNL     1      10.617  -0.924   2.567  1.00  0.00    -0.363 N 
HETATM   18  C   UNL     1      11.386   0.093   1.834  1.00  0.00     0.150 C 
HETATM   19  C   UNL     1      12.005  -0.499   0.556  1.00  0.00     0.187 C 
HETATM   20  O   UNL     1      12.782  -1.673   0.835  1.00  0.00    -0.388 OA
HETATM   21  C   UNL     1      11.945  -2.684   1.424  1.00  0.00     0.187 C 
HETATM   22  C   UNL     1      11.329  -2.201   2.745  1.00  0.00     0.150 C 
ENDBRANCH   4  17
TORSDOF 4
