REMARK  6 active torsions:
REMARK  status: ('A' for Active; 'I' for Inactive)
REMARK    1  A    between atoms: C_7  and  O_8 
REMARK    2  A    between atoms: O_8  and  C_9 
REMARK    3  A    between atoms: C_9  and  C_10 
REMARK    4  A    between atoms: C_10  and  N_11 
REMARK       I    between atoms: N_11  and  C_12 
REMARK    5  A    between atoms: C_12  and  C_14 
REMARK    6  A    between atoms: C_14  and  N_15 
ROOT
HETATM    1  N   UNL     1       2.754  -4.393   2.559  1.00  0.00    -0.358 N 
HETATM    2  C   UNL     1       3.945  -4.776   3.133  1.00  0.00     0.237 C 
HETATM    3  O   UNL     1       4.591  -4.044   3.879  1.00  0.00    -0.272 OA
HETATM    4  H   UNL     1       2.368  -4.912   1.779  1.00  0.00     0.162 HD
ENDROOT
BRANCH   1   5
HETATM    5  C   UNL     1       2.185  -3.080   2.806  1.00  0.00     0.148 C 
BRANCH   5   6
HETATM    6  C   UNL     1       2.787  -2.002   1.906  1.00  0.00     0.187 C 
BRANCH   6   7
HETATM    7  O   UNL     1       2.385  -2.238   0.549  1.00  0.00    -0.384 OA
BRANCH   7   8
HETATM    8  C   UNL     1       2.909  -1.273  -0.376  1.00  0.00     0.125 C 
HETATM    9  C   UNL     1       2.375   0.155  -0.116  1.00  0.00     0.010 C 
HETATM   10  C   UNL     1       0.846   0.199   0.010  1.00  0.00     0.012 C 
HETATM   11  C   UNL     1       2.885   1.123  -1.191  1.00  0.00     0.007 C 
HETATM   12  C   UNL     1       2.554   0.662  -2.607  1.00  0.00     0.001 C 
HETATM   13  C   UNL     1       3.038  -0.762  -2.865  1.00  0.00     0.002 C 
HETATM   14  C   UNL     1       2.562  -1.744  -1.797  1.00  0.00     0.032 C 
ENDBRANCH   7   8
ENDBRANCH   6   7
ENDBRANCH   5   6
ENDBRANCH   1   5
BRANCH   2  15
HETATM   15  C   UNL     1       4.400  -6.175   2.798  1.00  0.00     0.249 C 
BRANCH  15  16
HETATM   16  N   UNL     1       4.417  -6.998   3.979  1.00  0.00    -0.264 N 
HETATM   17  C   UNL     1       5.190  -6.887   5.091  1.00  0.00     0.213 A 
HETATM   18  N   UNL     1       4.904  -7.886   5.893  1.00  0.00    -0.281 N 
HETATM   19  N   UNL     1       3.937  -8.622   5.249  1.00  0.00    -0.008 NA
ATOM     20  HN  UNL     1       5.315  -8.077   6.807  1.00  0.00     0.184 HD
HETATM   21  N   UNL     1       3.639  -8.088   4.072  1.00  0.00    -0.005 NA
ENDBRANCH  15  16
ENDBRANCH   2  15
TORSDOF 6
