REMARK  6 active torsions:
REMARK  status: ('A' for Active; 'I' for Inactive)
REMARK    1  A    between atoms: O_1  and  C_2 
REMARK    2  A    between atoms: C_2  and  C_3 
REMARK    3  A    between atoms: C_3  and  C_4 
REMARK    4  A    between atoms: C_4  and  N_5 
REMARK    5  A    between atoms: C_4  and  C_16 
REMARK       I    between atoms: N_5  and  C_6 
REMARK       I    between atoms: C_6  and  N_8 
REMARK    6  A    between atoms: N_8  and  C_9 
ROOT
HETATM    1  N   UNL     1       4.265   0.386  -1.191  1.00  0.00    -0.338 N 
HETATM    2  C   UNL     1       5.072  -0.717  -1.328  1.00  0.00     0.321 C 
HETATM    3  O   UNL     1       5.768  -1.151  -0.419  1.00  0.00    -0.247 OA
HETATM    4  N   UNL     1       4.990  -1.233  -2.600  1.00  0.00    -0.309 N 
HETATM    5  H   UNL     1       3.572   0.559  -1.915  1.00  0.00     0.164 HD
HETATM    6  H   UNL     1       4.235  -0.875  -3.166  1.00  0.00     0.170 HD
ENDROOT
BRANCH   1   7
HETATM    7  C   UNL     1       4.039   1.110   0.058  1.00  0.00     0.092 C 
BRANCH   7   8
HETATM    8  C   UNL     1       2.519   1.414   0.159  1.00  0.00     0.051 C 
BRANCH   8   9
HETATM    9  C   UNL     1       1.936   2.210  -1.015  1.00  0.00     0.166 C 
BRANCH   9  10
HETATM   10  O   UNL     1       2.084   1.483  -2.238  1.00  0.00    -0.401 OA
HETATM   11  H   UNL     1       1.668   2.025  -2.934  1.00  0.00     0.209 HD
ENDBRANCH   9  10
ENDBRANCH   8   9
ENDBRANCH   7   8
BRANCH   7  12
HETATM   12  C   UNL     1       4.933   2.388   0.173  1.00  0.00     0.008 C 
HETATM   13  C   UNL     1       6.442   2.128   0.008  1.00  0.00     0.007 C 
HETATM   14  C   UNL     1       7.064   1.349   1.165  1.00  0.00     0.000 C 
HETATM   15  C   UNL     1       6.724   1.912   2.543  1.00  0.00     0.000 C 
HETATM   16  C   UNL     1       5.265   2.328   2.703  1.00  0.00     0.000 C 
HETATM   17  C   UNL     1       4.751   3.135   1.512  1.00  0.00     0.007 C 
ENDBRANCH   7  12
ENDBRANCH   1   7
BRANCH   4  18
HETATM   18  C   UNL     1       5.753  -2.287  -3.142  1.00  0.00     0.038 A 
HETATM   19  C   UNL     1       6.872  -2.829  -2.519  1.00  0.00     0.046 A 
HETATM   20  C   UNL     1       7.546  -3.858  -3.154  1.00  0.00     0.090 A 
HETATM   21  N   UNL     1       7.184  -4.373  -4.350  1.00  0.00    -0.375 N 
HETATM   22  C   UNL     1       6.100  -3.828  -4.932  1.00  0.00     0.090 A 
ATOM     23  HN  UNL     1       7.704  -5.133  -4.788  1.00  0.00     0.164 HD
HETATM   24  C   UNL     1       5.363  -2.792  -4.381  1.00  0.00     0.046 A 
ENDBRANCH   4  18
TORSDOF 6
