REMARK  5 active torsions:
REMARK  status: ('A' for Active; 'I' for Inactive)
REMARK    1  A    between atoms: C_2  and  C_5 
REMARK    2  A    between atoms: C_5  and  O_6 
REMARK    3  A    between atoms: O_6  and  C_7 
REMARK    4  A    between atoms: C_10  and  N_11 
REMARK       I    between atoms: N_11  and  C_12 
REMARK    5  A    between atoms: C_12  and  C_14 
ROOT
HETATM    1  C   UNL     1       4.880   1.186   2.442  1.00  0.00     0.142 A 
HETATM    2  C   UNL     1       4.819   2.554   2.613  1.00  0.00     0.058 A 
HETATM    3  C   UNL     1       5.542   3.124   3.657  1.00  0.00     0.035 A 
HETATM    4  C   UNL     1       6.326   2.324   4.487  1.00  0.00     0.050 A 
HETATM    5  C   UNL     1       6.340   0.958   4.203  1.00  0.00     0.119 A 
HETATM    6  N   UNL     1       5.620   0.365   3.213  1.00  0.00    -0.345 N 
ATOM      7  HN  UNL     1       5.639  -0.644   3.063  1.00  0.00     0.167 HD
ENDROOT
BRANCH   4   8
HETATM    8  N   UNL     1       7.097   2.838   5.554  1.00  0.00    -0.324 N 
HETATM    9  C   UNL     1       6.981   4.106   6.090  1.00  0.00     0.251 C 
HETATM   10  O   UNL     1       6.130   4.945   5.787  1.00  0.00    -0.270 OA
HETATM   11  H   UNL     1       7.761   2.223   6.021  1.00  0.00     0.169 HD
BRANCH   9  12
HETATM   12  C   UNL     1       8.018   4.433   7.168  1.00  0.00     0.213 C 
HETATM   13  C   UNL     1       8.792   5.686   6.779  1.00  0.00     0.044 C 
HETATM   14  C   UNL     1      10.176   5.477   7.354  1.00  0.00     0.029 C 
HETATM   15  C   UNL     1      10.082   4.150   8.075  1.00  0.00     0.168 C 
HETATM   16  O   UNL     1       9.011   3.440   7.433  1.00  0.00    -0.376 OA
ENDBRANCH   9  12
ENDBRANCH   4   8
BRANCH   1  17
HETATM   17  O   UNL     1       4.171   0.673   1.379  1.00  0.00    -0.327 OA
BRANCH  17  18
HETATM   18  C   UNL     1       3.856  -0.717   1.532  1.00  0.00     0.294 C 
BRANCH  18  19
HETATM   19  C   UNL     1       4.989  -1.683   1.199  1.00  0.00     0.408 C 
HETATM   20  F   UNL     1       6.103  -1.079   0.735  1.00  0.00    -0.169 F 
HETATM   21  F   UNL     1       4.584  -2.546   0.229  1.00  0.00    -0.169 F 
HETATM   22  F   UNL     1       5.329  -2.441   2.268  1.00  0.00    -0.169 F 
ENDBRANCH  18  19
ENDBRANCH  17  18
ENDBRANCH   1  17
TORSDOF 5
