REMARK  2 active torsions:
REMARK  status: ('A' for Active; 'I' for Inactive)
REMARK       I    between atoms: C_2  and  N_3 
REMARK       I    between atoms: C_2  and  N_11 
REMARK    1  A    between atoms: N_3  and  C_4 
REMARK    2  A    between atoms: N_11  and  C_12 
ROOT
HETATM    1  O   UNL     1       1.161  -0.267  -0.172  1.00  0.00    -0.247 OA
HETATM    2  C   UNL     1       2.342  -0.020   0.038  1.00  0.00     0.321 C 
HETATM    3  N   UNL     1       2.993  -0.537   1.141  1.00  0.00    -0.337 N 
HETATM    4  N   UNL     1       3.162   0.759  -0.741  1.00  0.00    -0.309 N 
HETATM    5  H   UNL     1       3.836  -0.071   1.446  1.00  0.00     0.164 HD
HETATM    6  H   UNL     1       4.141   0.783  -0.493  1.00  0.00     0.170 HD
ENDROOT
BRANCH   3   7
HETATM    7  C   UNL     1       2.272  -1.342   2.128  1.00  0.00     0.101 C 
HETATM    8  C   UNL     1       1.701  -2.650   1.538  1.00  0.00     0.041 C 
HETATM    9  C   UNL     1       0.443  -3.065   2.294  1.00  0.00     0.142 C 
HETATM   10  S   UNL     1       0.156  -1.848   3.553  1.00  0.00     0.146 S 
HETATM   11  O   UNL     1      -1.234  -1.444   3.536  1.00  0.00    -0.228 OA
HETATM   12  O   UNL     1       0.814  -2.289   4.769  1.00  0.00    -0.228 OA
HETATM   13  C   UNL     1       1.150  -0.578   2.829  1.00  0.00     0.165 C 
ENDBRANCH   3   7
BRANCH   4  14
HETATM   14  C   UNL     1       2.779   1.472  -1.902  1.00  0.00     0.038 A 
HETATM   15  C   UNL     1       1.476   1.498  -2.397  1.00  0.00     0.046 A 
HETATM   16  C   UNL     1       1.207   2.247  -3.531  1.00  0.00     0.090 A 
HETATM   17  N   UNL     1       2.136   2.963  -4.195  1.00  0.00    -0.375 N 
HETATM   18  C   UNL     1       3.390   2.921  -3.704  1.00  0.00     0.090 A 
ATOM     19  HN  UNL     1       1.902   3.508  -5.025  1.00  0.00     0.164 HD
HETATM   20  C   UNL     1       3.759   2.198  -2.578  1.00  0.00     0.046 A 
ENDBRANCH   4  14
TORSDOF 2
