REMARK  7 active torsions:
REMARK  status: ('A' for Active; 'I' for Inactive)
REMARK    1  A    between atoms: O_2  and  C_3 
REMARK    2  A    between atoms: C_3  and  C_4 
REMARK    3  A    between atoms: C_10  and  N_13 
REMARK    4  A    between atoms: C_17  and  O_19 
REMARK    5  A    between atoms: O_19  and  C_20 
REMARK    6  A    between atoms: C_20  and  C_21 
REMARK    7  A    between atoms: C_21  and  O_22 
ROOT
HETATM    1  C   UNL     1       4.640   0.906   0.908  1.00  0.00     0.107 A 
HETATM    2  N   UNL     1       5.240   1.809   0.113  1.00  0.00    -0.348 N 
ATOM      3  HN  UNL     1       4.705   2.447  -0.476  1.00  0.00     0.167 HD
HETATM    4  C   UNL     1       6.582   1.824   0.138  1.00  0.00     0.010 A 
HETATM    5  C   UNL     1       7.288   2.784  -0.769  1.00  0.00     0.068 C 
HETATM    6  C   UNL     1       7.316   0.984   0.954  1.00  0.00     0.073 A 
HETATM    7  C   UNL     1       6.635   0.085   1.750  1.00  0.00     0.106 A 
HETATM    8  N   UNL     1       5.294   0.037   1.706  1.00  0.00    -0.330 N 
ATOM      9  HN  UNL     1       4.780  -0.643   2.265  1.00  0.00     0.168 HD
ENDROOT
BRANCH   7  10
HETATM   10  N   UNL     1       7.297  -0.808   2.562  1.00  0.00    -0.365 N 
HETATM   11  C   UNL     1       8.593  -0.554   3.175  1.00  0.00     0.124 C 
HETATM   12  C   UNL     1       9.505  -1.733   2.844  1.00  0.00     0.022 C 
HETATM   13  C   UNL     1       8.878  -3.059   3.292  1.00  0.00     0.035 C 
HETATM   14  C   UNL     1       7.448  -3.243   2.747  1.00  0.00     0.139 C 
HETATM   15  C   UNL     1       6.595  -1.988   3.057  1.00  0.00     0.156 C 
BRANCH  14  16
HETATM   16  O   UNL     1       6.905  -4.444   3.324  1.00  0.00    -0.382 OA
BRANCH  16  17
HETATM   17  C   UNL     1       5.623  -4.790   2.774  1.00  0.00     0.194 C 
BRANCH  17  18
HETATM   18  C   UNL     1       5.166  -6.122   3.357  1.00  0.00     0.190 C 
BRANCH  18  19
HETATM   19  O   UNL     1       5.104  -6.036   4.779  1.00  0.00    -0.399 OA
HETATM   20  H   UNL     1       5.961  -5.655   5.050  1.00  0.00     0.209 HD
ENDBRANCH  18  19
ENDBRANCH  17  18
ENDBRANCH  16  17
ENDBRANCH  14  16
ENDBRANCH   7  10
BRANCH   1  21
HETATM   21  C   UNL     1       3.125   0.931   0.972  1.00  0.00     0.243 C 
BRANCH  21  22
HETATM   22  O   UNL     1       2.591   1.204   2.278  1.00  0.00    -0.389 OA
HETATM   23  C   UNL     1       2.962   2.490   2.758  1.00  0.00     0.202 C 
ENDBRANCH  21  22
ENDBRANCH   1  21
TORSDOF 7
