REMARK  5 active torsions:
REMARK  status: ('A' for Active; 'I' for Inactive)
REMARK    1  A    between atoms: C_2  and  C_3 
REMARK    2  A    between atoms: C_2  and  N_10 
REMARK    3  A    between atoms: C_3  and  N_4 
REMARK    4  A    between atoms: N_10  and  S_11 
REMARK    5  A    between atoms: S_11  and  N_14 
ROOT
HETATM    1  N   UNL     1       3.364  -1.413  -0.388  1.00  0.00    -0.197 NA
HETATM    2  H   UNL     1       2.963  -2.289  -0.726  1.00  0.00     0.141 HD
ENDROOT
BRANCH   1   3
HETATM    3  C   UNL     1       2.437  -0.277  -0.776  1.00  0.00     0.088 C 
HETATM    4  C   UNL     1       1.064  -0.585  -0.157  1.00  0.00     0.029 C 
BRANCH   3   5
HETATM    5  C   UNL     1       2.940   1.100  -0.314  1.00  0.00     0.168 C 
BRANCH   5   6
HETATM    6  N   UNL     1       2.082   2.197  -0.731  1.00  0.00    -0.302 N 
HETATM    7  C   UNL     1       1.488   3.129   0.069  1.00  0.00     0.111 A 
HETATM    8  C   UNL     1       0.880   4.026  -0.779  1.00  0.00     0.037 A 
HETATM    9  C   UNL     1       1.160   3.542  -2.070  1.00  0.00     0.108 A 
HETATM   10  N   UNL     1       1.875   2.415  -2.044  1.00  0.00    -0.310 N 
ATOM     11  HN  UNL     1       2.191   1.851  -2.833  1.00  0.00     0.186 HD
ENDBRANCH   5   6
ENDBRANCH   3   5
ENDBRANCH   1   3
BRANCH   1  12
HETATM   12  S   UNL     1       4.926  -1.341  -1.033  1.00  0.00     0.299 S 
HETATM   13  O   UNL     1       4.791  -1.524  -2.456  1.00  0.00    -0.188 OA
HETATM   14  O   UNL     1       5.595  -0.202  -0.453  1.00  0.00    -0.188 OA
BRANCH  12  15
HETATM   15  N   UNL     1       5.578  -2.715  -0.368  1.00  0.00    -0.298 N 
HETATM   16  C   UNL     1       5.440  -4.041  -0.984  1.00  0.00     0.136 C 
HETATM   17  C   UNL     1       4.559  -4.965  -0.140  1.00  0.00     0.021 C 
HETATM   18  C   UNL     1       4.877  -4.917   1.359  1.00  0.00     0.007 C 
HETATM   19  C   UNL     1       4.928  -3.464   1.849  1.00  0.00     0.000 C 
HETATM   20  C   UNL     1       5.196  -3.350   3.343  1.00  0.00     0.011 C 
HETATM   21  C   UNL     1       5.992  -2.722   1.043  1.00  0.00     0.140 C 
ENDBRANCH  12  15
ENDBRANCH   1  12
TORSDOF 5
