REMARK  3 active torsions:
REMARK  status: ('A' for Active; 'I' for Inactive)
REMARK    1  A    between atoms: O_1  and  C_2 
REMARK    2  A    between atoms: C_2  and  CA_4 
REMARK    3  A    between atoms: C_7  and  N_13 
ROOT
HETATM    1  CA  UNL     1       3.175   3.728  -0.342  1.00  0.00     0.145 A 
HETATM    2  N   UNL     1       4.519   3.798  -0.617  1.00  0.00    -0.183 N 
ATOM      3  HN  UNL     1       4.994   4.696  -0.710  1.00  0.00     0.184 HD
HETATM    4  C   UNL     1       5.183   2.642  -0.759  1.00  0.00     0.680 A 
HETATM    5  N   UNL     1       4.567   1.457  -0.644  1.00  0.00    -0.200 N 
ATOM      6  HN  UNL     1       5.088   0.588  -0.761  1.00  0.00     0.183 HD
HETATM    7  C   UNL     1       3.244   1.434  -0.370  1.00  0.00     0.132 A 
HETATM    8  C   UNL     1       2.473   2.555  -0.204  1.00  0.00     0.084 A 
HETATM    9 CL   UNL     1       0.804   2.385   0.135  1.00  0.00    -0.080 Cl
ENDROOT
BRANCH   4  10
HETATM   10  N   UNL     1       6.520   2.665  -1.026  1.00  0.00    -0.214 N 
HETATM   11  C   UNL     1       7.277   3.901  -1.204  1.00  0.00     0.167 C 
HETATM   12  C   UNL     1       7.965   3.888  -2.579  1.00  0.00     0.188 C 
HETATM   13  O   UNL     1       8.772   2.711  -2.755  1.00  0.00    -0.388 OA
HETATM   14  C   UNL     1       7.965   1.525  -2.648  1.00  0.00     0.188 C 
HETATM   15  C   UNL     1       7.277   1.435  -1.275  1.00  0.00     0.167 C 
ENDBRANCH   4  10
BRANCH   1  16
HETATM   16  C   UNL     1       2.535   5.076  -0.207  1.00  0.00     0.196 C 
HETATM   17  OXT UNL     1       1.367   5.310   0.032  1.00  0.00    -0.645 OA
BRANCH  16  18
HETATM   18  O   UNL     1       3.461   6.054  -0.396  1.00  0.00    -0.772 OA
HETATM   19  H   UNL     1       4.338   5.641  -0.570  1.00  0.00     0.167 HD
ENDBRANCH  16  18
ENDBRANCH   1  16
TORSDOF 3
