REMARK  5 active torsions:
REMARK  status: ('A' for Active; 'I' for Inactive)
REMARK       I    between atoms: C_2  and  N_3 
REMARK       I    between atoms: C_2  and  N_17 
REMARK    1  A    between atoms: N_3  and  C_4 
REMARK    2  A    between atoms: C_4  and  C_5 
REMARK    3  A    between atoms: C_5  and  C_6 
REMARK    4  A    between atoms: C_5  and  N_11 
REMARK    5  A    between atoms: N_17  and  C_18 
ROOT
HETATM    1  O   UNL     1       3.855  -0.461   3.496  1.00  0.00    -0.247 OA
HETATM    2  C   UNL     1       3.949  -0.558   2.274  1.00  0.00     0.321 C 
HETATM    3  N   UNL     1       3.468   0.378   1.415  1.00  0.00    -0.341 N 
HETATM    4  N   UNL     1       4.511  -1.664   1.717  1.00  0.00    -0.295 N 
HETATM    5  H   UNL     1       3.571   0.165   0.423  1.00  0.00     0.164 HD
HETATM    6  H   UNL     1       4.771  -2.357   2.401  1.00  0.00     0.172 HD
ENDROOT
BRANCH   3   7
HETATM    7  C   UNL     1       2.589   1.438   1.832  1.00  0.00     0.160 C 
BRANCH   7   8
HETATM    8  C   UNL     1       3.280   2.569   2.659  1.00  0.00     0.247 C 
BRANCH   8   9
HETATM    9  C   UNL     1       4.244   3.412   1.756  1.00  0.00     0.046 C 
HETATM   10  C   UNL     1       3.679   4.034   0.479  1.00  0.00     0.035 C 
HETATM   11  C   UNL     1       4.802   3.911  -0.540  1.00  0.00     0.168 C 
HETATM   12  O   UNL     1       5.972   3.511   0.180  1.00  0.00    -0.391 OA
HETATM   13  C   UNL     1       5.498   2.697   1.261  1.00  0.00     0.174 C 
ENDBRANCH   8   9
BRANCH   8  14
HETATM   14  N   UNL     1       2.233   3.385   3.369  1.00  0.00     0.099 N 
HETATM   15  C   UNL     1       2.778   4.506   4.184  1.00  0.00     0.299 C 
HETATM   16  C   UNL     1       3.534   4.068   5.454  1.00  0.00     0.198 C 
HETATM   17  O   UNL     1       2.718   3.255   6.304  1.00  0.00    -0.388 OA
HETATM   18  C   UNL     1       2.219   2.116   5.585  1.00  0.00     0.198 C 
HETATM   19  C   UNL     1       1.432   2.572   4.342  1.00  0.00     0.299 C 
ENDBRANCH   8  14
ENDBRANCH   7   8
ENDBRANCH   3   7
BRANCH   4  20
HETATM   20  C   UNL     1       4.620  -1.993   0.363  1.00  0.00     0.108 A 
HETATM   21  C   UNL     1       4.935  -3.308   0.044  1.00  0.00     0.049 A 
HETATM   22  C   UNL     1       4.995  -3.679  -1.298  1.00  0.00     0.005 A 
HETATM   23  C   UNL     1       4.779  -2.722  -2.281  1.00  0.00     0.017 A 
HETATM   24  C   UNL     1       4.494  -1.431  -1.880  1.00  0.00     0.089 A 
HETATM   25  N   UNL     1       4.390  -1.054  -0.585  1.00  0.00    -0.352 N 
ATOM     26  HN  UNL     1       4.147  -0.096  -0.332  1.00  0.00     0.166 HD
ENDBRANCH   4  20
TORSDOF 5
