REMARK  2 active torsions:
REMARK  status: ('A' for Active; 'I' for Inactive)
REMARK       I    between atoms: C_2  and  N_3 
REMARK       I    between atoms: C_2  and  N_10 
REMARK    1  A    between atoms: N_3  and  C_4 
REMARK    2  A    between atoms: N_10  and  C_11 
ROOT
HETATM    1  O   UNL     1       1.948  -1.317   1.288  1.00  0.00    -0.247 OA
HETATM    2  C   UNL     1       2.762  -0.642   0.659  1.00  0.00     0.322 C 
HETATM    3  N   UNL     1       2.872   0.704   0.770  1.00  0.00    -0.338 N 
HETATM    4  N   UNL     1       3.606  -1.257  -0.218  1.00  0.00    -0.295 N 
HETATM    5  H   UNL     1       3.688   1.091   0.300  1.00  0.00     0.164 HD
HETATM    6  H   UNL     1       3.452  -2.250  -0.273  1.00  0.00     0.172 HD
ENDROOT
BRANCH   3   7
HETATM    7  C   UNL     1       2.096   1.559   1.656  1.00  0.00     0.086 C 
HETATM    8  C   UNL     1       0.597   1.553   1.322  1.00  0.00     0.025 C 
HETATM    9  C   UNL     1       0.310   2.175  -0.043  1.00  0.00     0.002 C 
HETATM   10  C   UNL     1       0.876   3.588  -0.148  1.00  0.00     0.000 C 
HETATM   11  C   UNL     1       2.353   3.655   0.231  1.00  0.00     0.002 C 
HETATM   12  C   UNL     1       2.630   2.998   1.587  1.00  0.00     0.025 C 
ENDBRANCH   3   7
BRANCH   4  13
HETATM   13  C   UNL     1       4.590  -0.691  -1.038  1.00  0.00     0.108 A 
HETATM   14  C   UNL     1       5.299  -1.540  -1.882  1.00  0.00     0.049 A 
HETATM   15  C   UNL     1       6.269  -1.000  -2.725  1.00  0.00     0.005 A 
HETATM   16  C   UNL     1       6.506   0.367  -2.704  1.00  0.00     0.017 A 
HETATM   17  C   UNL     1       5.766   1.141  -1.828  1.00  0.00     0.089 A 
HETATM   18  N   UNL     1       4.826   0.640  -0.995  1.00  0.00    -0.352 N 
ATOM     19  HN  UNL     1       4.312   1.246  -0.355  1.00  0.00     0.166 HD
ENDBRANCH   4  13
TORSDOF 2
