REMARK  4 active torsions:
REMARK  status: ('A' for Active; 'I' for Inactive)
REMARK    1  A    between atoms: C_3  and  C_12 
REMARK    2  A    between atoms: N_5  and  C_19 
REMARK    3  A    between atoms: C_7  and  N_11 
REMARK    4  A    between atoms: N_11  and  C_12 
ROOT
HETATM    1  C   UNL     1       2.783   0.126  -0.178  1.00  0.00     0.167 C 
ENDROOT
BRANCH   1   2
HETATM    2  C   UNL     1       1.304  -0.091  -0.085  1.00  0.00     0.043 A 
HETATM    3  C   UNL     1       0.535   1.182  -0.118  1.00  0.00     0.258 A 
HETATM    4  N   UNL     1      -0.819   1.079  -0.030  1.00  0.00    -0.275 N 
HETATM    5  O   UNL     1       1.093   2.270  -0.230  1.00  0.00    -0.267 OA
HETATM    6  C   UNL     1      -1.536  -0.086  -0.021  1.00  0.00     0.329 A 
HETATM    7  H   UNL     1      -1.349   1.934  -0.072  1.00  0.00     0.173 HD
HETATM    8  N   UNL     1      -0.779  -1.250   0.023  1.00  0.00    -0.309 N 
HETATM    9  O   UNL     1      -2.763  -0.054  -0.060  1.00  0.00    -0.246 OA
HETATM   10  C   UNL     1       0.604  -1.229  -0.005  1.00  0.00     0.110 A 
BRANCH   8  11
HETATM   11  C   UNL     1      -1.472  -2.538   0.011  1.00  0.00     0.128 C 
HETATM   12  C   UNL     1      -1.646  -3.076  -1.402  1.00  0.00     0.027 C 
ENDBRANCH   8  11
ENDBRANCH   1   2
BRANCH   1  13
HETATM   13  N   UNL     1       3.593  -1.062  -0.124  1.00  0.00    -0.371 N 
HETATM   14  H   UNL     1       3.180  -1.984  -0.126  1.00  0.00     0.161 HD
BRANCH  13  15
HETATM   15  C   UNL     1       4.959  -1.133  -0.161  1.00  0.00     0.109 A 
HETATM   16  N   UNL     1       5.374  -2.413  -0.079  1.00  0.00    -0.338 N 
HETATM   17  C   UNL     1       6.693  -2.652  -0.067  1.00  0.00     0.181 A 
ATOM     18  HN  UNL     1       4.702  -3.179  -0.027  1.00  0.00     0.168 HD
HETATM   19  N   UNL     1       7.656  -1.733  -0.138  1.00  0.00    -0.361 N 
HETATM   20  C   UNL     1       7.211  -0.470  -0.230  1.00  0.00     0.099 A 
ATOM     21  HN  UNL     1       8.648  -1.970  -0.124  1.00  0.00     0.166 HD
HETATM   22  C   UNL     1       5.872  -0.091  -0.255  1.00  0.00    -0.003 A 
HETATM   23  C   UNL     1       5.624   1.380  -0.373  1.00  0.00     0.054 C 
ENDBRANCH  13  15
ENDBRANCH   1  13
TORSDOF 4
