REMARK  3 active torsions:
REMARK  status: ('A' for Active; 'I' for Inactive)
REMARK    1  A    between atoms: C_2  and  N_3 
REMARK    2  A    between atoms: C_2  and  C_14 
REMARK       I    between atoms: N_3  and  C_4 
REMARK       I    between atoms: C_4  and  N_6 
REMARK    3  A    between atoms: N_6  and  C_7 
REMARK       I    between atoms: C_14  and  N_16 
ROOT
HETATM    1  N   UNL     1       2.761   1.197  -0.717  1.00  0.00    -0.330 N 
HETATM    2  C   UNL     1       3.036   1.281  -2.042  1.00  0.00     0.322 C 
HETATM    3  O   UNL     1       2.938   0.330  -2.812  1.00  0.00    -0.247 OA
HETATM    4  N   UNL     1       3.567   2.458  -2.482  1.00  0.00    -0.295 N 
HETATM    5  H   UNL     1       2.767   2.077  -0.202  1.00  0.00     0.165 HD
HETATM    6  H   UNL     1       3.879   2.425  -3.440  1.00  0.00     0.172 HD
ENDROOT
BRANCH   1   7
HETATM    7  C   UNL     1       2.349  -0.022  -0.036  1.00  0.00     0.174 C 
HETATM    8  C   UNL     1       0.835  -0.016   0.129  1.00  0.00     0.042 C 
BRANCH   7   9
HETATM    9  C   UNL     1       3.094  -0.171   1.324  1.00  0.00     0.242 C 
HETATM   10  O   UNL     1       2.470  -0.215   2.387  1.00  0.00    -0.271 OA
HETATM   11  N   UNL     1       4.490  -0.326   1.303  1.00  0.00    -0.349 N 
HETATM   12  C   UNL     1       5.314  -0.180   0.099  1.00  0.00     0.140 C 
HETATM   13  C   UNL     1       5.220  -0.339   2.580  1.00  0.00     0.140 C 
HETATM   14  C   UNL     1       6.304  -1.305  -0.072  1.00  0.00     0.160 C 
HETATM   15  S   UNL     1       7.378  -1.385   1.325  1.00  0.00     0.147 S 
HETATM   16  O   UNL     1       8.089  -2.648   1.259  1.00  0.00    -0.228 OA
HETATM   17  O   UNL     1       8.104  -0.133   1.414  1.00  0.00    -0.228 OA
HETATM   18  C   UNL     1       6.225  -1.471   2.670  1.00  0.00     0.160 C 
ENDBRANCH   7   9
ENDBRANCH   1   7
BRANCH   4  19
HETATM   19  C   UNL     1       3.771   3.633  -1.756  1.00  0.00     0.108 A 
HETATM   20  C   UNL     1       4.545   4.637  -2.325  1.00  0.00     0.049 A 
HETATM   21  C   UNL     1       4.781   5.798  -1.591  1.00  0.00     0.005 A 
HETATM   22  C   UNL     1       4.213   5.937  -0.330  1.00  0.00     0.017 A 
HETATM   23  C   UNL     1       3.441   4.899   0.153  1.00  0.00     0.089 A 
HETATM   24  N   UNL     1       3.224   3.753  -0.524  1.00  0.00    -0.352 N 
ATOM     25  HN  UNL     1       2.666   3.001  -0.120  1.00  0.00     0.166 HD
ENDBRANCH   4  19
TORSDOF 3
