REMARK  6 active torsions:
REMARK  status: ('A' for Active; 'I' for Inactive)
REMARK    1  A    between atoms: N_1  and  C_10 
REMARK    2  A    between atoms: N_2  and  C_9 
REMARK    3  A    between atoms: S_4  and  C_12 
REMARK    4  A    between atoms: S_4  and  N_8 
REMARK    5  A    between atoms: C_10  and  C_11 
REMARK       I    between atoms: C_11  and  N_17 
REMARK    6  A    between atoms: N_17  and  C_23 
ROOT
HETATM    1  C   UNL     1      -2.858   1.852  -0.318  1.00  0.00     0.240 C 
HETATM    2  N   UNL     1      -3.301   0.650  -0.876  1.00  0.00    -0.326 N 
HETATM    3  O   UNL     1      -1.693   2.104  -0.015  1.00  0.00    -0.271 OA
HETATM    4  H   UNL     1      -4.304   0.482  -0.818  1.00  0.00     0.169 HD
ENDROOT
BRANCH   1   5
HETATM    5  C   UNL     1      -3.992   2.841   0.060  1.00  0.00     0.240 C 
BRANCH   5   6
HETATM    6  N   UNL     1      -4.221   2.772   1.498  1.00  0.00    -0.255 N 
HETATM    7  C   UNL     1      -4.709   1.568   1.968  1.00  0.00     0.334 C 
HETATM    8  N   UNL     1      -4.573   1.356   3.338  1.00  0.00    -0.279 N 
HETATM    9  O   UNL     1      -5.159   0.708   1.209  1.00  0.00    -0.246 OA
HETATM   10  C   UNL     1      -4.325   2.398   4.212  1.00  0.00     0.146 C 
HETATM   11  C   UNL     1      -4.160   3.639   3.759  1.00  0.00     0.200 C 
HETATM   12  C   UNL     1      -4.097   3.898   2.298  1.00  0.00     0.292 C 
HETATM   13  F   UNL     1      -3.970   4.687   4.585  1.00  0.00    -0.199 F 
HETATM   14  O   UNL     1      -3.971   5.040   1.863  1.00  0.00    -0.264 OA
BRANCH   8  15
HETATM   15  C   UNL     1      -4.469  -0.037   3.714  1.00  0.00     0.232 C 
HETATM   16  O   UNL     1      -4.315  -0.245   5.122  1.00  0.00    -0.366 OA
HETATM   17  C   UNL     1      -3.592  -1.482   5.287  1.00  0.00     0.170 C 
HETATM   18  C   UNL     1      -3.044  -1.895   3.932  1.00  0.00     0.031 C 
HETATM   19  C   UNL     1      -3.214  -0.655   3.107  1.00  0.00     0.056 C 
ENDBRANCH   8  15
ENDBRANCH   5   6
ENDBRANCH   1   5
BRANCH   2  20
HETATM   20  C   UNL     1      -2.511  -0.488  -1.194  1.00  0.00     0.034 A 
HETATM   21  C   UNL     1      -1.115  -0.488  -1.181  1.00  0.00     0.031 A 
HETATM   22  C   UNL     1      -0.390  -1.677  -1.351  1.00  0.00     0.027 A 
HETATM   23  C   UNL     1      -1.058  -2.889  -1.522  1.00  0.00     0.079 A 
HETATM   24  C   UNL     1      -2.446  -2.889  -1.676  1.00  0.00     0.027 A 
HETATM   25  C   UNL     1      -3.167  -1.691  -1.512  1.00  0.00     0.031 A 
BRANCH  23  26
HETATM   26  S   UNL     1      -0.120  -4.407  -1.655  1.00  0.00     0.260 S 
HETATM   27  O   UNL     1      -1.056  -5.466  -1.954  1.00  0.00    -0.200 OA
HETATM   28  O   UNL     1       1.004  -4.119  -2.523  1.00  0.00    -0.200 OA
BRANCH  26  29
HETATM   29  N   UNL     1       0.483  -4.692  -0.111  1.00  0.00    -0.307 N 
HETATM   30  C   UNL     1      -0.362  -5.234   0.964  1.00  0.00     0.135 C 
HETATM   31  C   UNL     1       0.286  -4.743   2.258  1.00  0.00     0.022 C 
HETATM   32  C   UNL     1       1.729  -4.470   1.871  1.00  0.00     0.022 C 
HETATM   33  C   UNL     1       1.609  -3.935   0.449  1.00  0.00     0.135 C 
ENDBRANCH  26  29
ENDBRANCH  23  26
ENDBRANCH   2  20
TORSDOF 6
