REMARK  4 active torsions:
REMARK  status: ('A' for Active; 'I' for Inactive)
REMARK    1  A    between atoms: N_1  and  C_8 
REMARK    2  A    between atoms: N_2  and  C_7 
REMARK    3  A    between atoms: C_8  and  C_9 
REMARK       I    between atoms: C_9  and  N_13 
REMARK    4  A    between atoms: N_13  and  C_16 
ROOT
HETATM    1  C   UNL     1      -1.785   2.224   0.192  1.00  0.00     0.240 C 
ENDROOT
BRANCH   1   2
HETATM    2  N   UNL     1      -0.939   1.028   0.266  1.00  0.00    -0.255 N 
HETATM    3  C   UNL     1      -1.344  -0.006   1.121  1.00  0.00     0.334 C 
HETATM    4  N   UNL     1      -0.554  -1.166   1.093  1.00  0.00    -0.279 N 
HETATM    5  O   UNL     1      -2.322   0.121   1.865  1.00  0.00    -0.246 OA
HETATM    6  C   UNL     1       0.709  -1.139   0.523  1.00  0.00     0.146 C 
HETATM    7  C   UNL     1       1.176  -0.063  -0.084  1.00  0.00     0.200 C 
HETATM    8  C   UNL     1       0.338   1.131  -0.258  1.00  0.00     0.292 C 
HETATM    9  F   UNL     1       2.454   0.004  -0.533  1.00  0.00    -0.199 F 
HETATM   10  O   UNL     1       0.797   2.143  -0.780  1.00  0.00    -0.264 OA
BRANCH   4  11
HETATM   11  C   UNL     1      -0.965  -2.345   1.865  1.00  0.00     0.232 C 
HETATM   12  O   UNL     1       0.013  -2.568   2.897  1.00  0.00    -0.366 OA
HETATM   13  C   UNL     1       0.205  -3.975   3.076  1.00  0.00     0.170 C 
HETATM   14  C   UNL     1      -0.687  -4.707   2.101  1.00  0.00     0.031 C 
HETATM   15  C   UNL     1      -1.057  -3.655   1.079  1.00  0.00     0.056 C 
ENDBRANCH   4  11
ENDBRANCH   1   2
BRANCH   1  16
HETATM   16  C   UNL     1      -3.177   1.909  -0.365  1.00  0.00     0.240 C 
HETATM   17  N   UNL     1      -4.174   2.045   0.588  1.00  0.00    -0.326 N 
HETATM   18  H   UNL     1      -3.867   2.215   1.539  1.00  0.00     0.169 HD
HETATM   19  O   UNL     1      -3.332   1.567  -1.534  1.00  0.00    -0.271 OA
BRANCH  17  20
HETATM   20  C   UNL     1      -5.565   1.878   0.429  1.00  0.00     0.037 C 
HETATM   21  C   UNL     1      -6.175   1.379  -0.723  1.00  0.00     0.069 C 
HETATM   22  C   UNL     1      -7.556   1.172  -0.726  1.00  0.00     0.104 C 
HETATM   23  C   UNL     1      -8.346   1.611   0.338  1.00  0.00     0.102 C 
HETATM   24  O   UNL     1      -8.113   0.421  -1.731  1.00  0.00    -0.348 OA
HETATM   25  O   UNL     1      -9.709   1.526   0.274  1.00  0.00    -0.348 OA
HETATM   26  C   UNL     1      -7.755   2.140   1.468  1.00  0.00     0.042 C 
HETATM   27  C   UNL     1     -10.120   0.197   0.582  1.00  0.00     0.178 C 
HETATM   28  C   UNL     1      -9.969  -0.764  -0.592  1.00  0.00     0.053 C 
HETATM   29  C   UNL     1      -8.554  -0.831  -1.169  1.00  0.00     0.178 C 
HETATM   30  C   UNL     1      -6.363   2.219   1.536  1.00  0.00     0.032 C 
ENDBRANCH  17  20
ENDBRANCH   1  16
TORSDOF 4
