REMARK  5 active torsions:
REMARK  status: ('A' for Active; 'I' for Inactive)
REMARK    1  A    between atoms: C_2  and  C_5 
REMARK    2  A    between atoms: C_7  and  N_8 
REMARK       I    between atoms: N_8  and  C_9 
REMARK       I    between atoms: C_9  and  N_11 
REMARK    3  A    between atoms: N_11  and  C_12 
REMARK    4  A    between atoms: C_12  and  C_13 
REMARK    5  A    between atoms: C_17  and  O_18 
ROOT
HETATM    1  N   UNL     1       4.198   1.007  -4.659  1.00  0.00    -0.293 N 
HETATM    2  C   UNL     1       4.271   2.369  -4.619  1.00  0.00     0.321 C 
HETATM    3  O   UNL     1       4.026   2.958  -3.568  1.00  0.00    -0.247 OA
HETATM    4  N   UNL     1       4.594   3.001  -5.782  1.00  0.00    -0.342 N 
HETATM    5  H   UNL     1       3.904   0.584  -3.791  1.00  0.00     0.172 HD
HETATM    6  H   UNL     1       5.003   2.401  -6.492  1.00  0.00     0.164 HD
ENDROOT
BRANCH   1   7
HETATM    7  C   UNL     1       4.488   0.178  -5.720  1.00  0.00     0.132 A 
HETATM    8  C   UNL     1       4.361  -1.227  -5.698  1.00  0.00     0.086 A 
HETATM    9  C   UNL     1       4.759  -1.637  -6.951  1.00  0.00     0.087 A 
HETATM   10  O   UNL     1       5.106  -0.541  -7.676  1.00  0.00    -0.240 OA
HETATM   11  N   UNL     1       4.942   0.588  -6.911  1.00  0.00    -0.245 N 
ATOM     12  HN  UNL     1       5.129   1.550  -7.195  1.00  0.00     0.196 HD
BRANCH   9  13
HETATM   13  C   UNL     1       4.881  -2.976  -7.617  1.00  0.00     0.000 C 
HETATM   14  C   UNL     1       3.494  -3.639  -7.676  1.00  0.00     0.021 C 
HETATM   15  C   UNL     1       5.844  -3.857  -6.802  1.00  0.00     0.021 C 
HETATM   16  C   UNL     1       5.427  -2.851  -9.053  1.00  0.00     0.021 C 
ENDBRANCH   9  13
ENDBRANCH   1   7
BRANCH   4  17
HETATM   17  C   UNL     1       4.859   4.417  -5.861  1.00  0.00     0.131 C 
BRANCH  17  18
HETATM   18  C   UNL     1       4.647   4.945  -7.277  1.00  0.00     0.032 C 
HETATM   19  C   UNL     1       5.610   4.360  -8.324  1.00  0.00     0.009 C 
HETATM   20  C   UNL     1       5.833   5.466  -9.359  1.00  0.00     0.003 C 
HETATM   21  C   UNL     1       5.025   6.672  -8.885  1.00  0.00     0.032 C 
HETATM   22  C   UNL     1       4.853   6.454  -7.388  1.00  0.00     0.123 C 
BRANCH  22  23
HETATM   23  O   UNL     1       6.014   6.889  -6.691  1.00  0.00    -0.395 OA
HETATM   24  H   UNL     1       6.794   6.449  -7.069  1.00  0.00     0.210 HD
ENDBRANCH  22  23
ENDBRANCH  17  18
ENDBRANCH   4  17
TORSDOF 5
