REMARK  3 active torsions:
REMARK  status: ('A' for Active; 'I' for Inactive)
REMARK    1  A    between atoms: C_2  and  N_4 
REMARK    2  A    between atoms: C_7  and  N_8 
REMARK       I    between atoms: N_8  and  C_9 
REMARK       I    between atoms: C_9  and  N_11 
REMARK    3  A    between atoms: N_11  and  C_12 
ROOT
HETATM    1  N   UNL     1       5.841  -2.118   1.840  1.00  0.00    -0.330 N 
HETATM    2  C   UNL     1       6.466  -3.310   2.064  1.00  0.00     0.321 C 
HETATM    3  O   UNL     1       6.045  -4.137   2.866  1.00  0.00    -0.247 OA
HETATM    4  N   UNL     1       7.590  -3.473   1.288  1.00  0.00    -0.306 N 
HETATM    5  H   UNL     1       6.338  -1.413   1.310  1.00  0.00     0.165 HD
HETATM    6  H   UNL     1       8.144  -2.635   1.164  1.00  0.00     0.171 HD
ENDROOT
BRANCH   1   7
HETATM    7  C   UNL     1       4.767  -1.642   2.703  1.00  0.00     0.180 C 
HETATM    8  C   UNL     1       3.539  -2.541   2.796  1.00  0.00     0.055 C 
HETATM    9  C   UNL     1       2.668  -2.107   1.637  1.00  0.00     0.129 C 
HETATM   10  N   UNL     1       2.998  -0.716   1.419  1.00  0.00    -0.346 N 
HETATM   11  C   UNL     1       4.214  -0.386   2.027  1.00  0.00     0.243 C 
HETATM   12  O   UNL     1       4.845   0.651   1.863  1.00  0.00    -0.271 OA
BRANCH  10  13
HETATM   13  C   UNL     1       2.547   0.007   0.226  1.00  0.00     0.079 C 
HETATM   14  C   UNL     1       3.521  -0.210  -0.940  1.00  0.00     0.032 C 
HETATM   15  C   UNL     1       1.130  -0.375  -0.202  1.00  0.00     0.032 C 
ENDBRANCH  10  13
ENDBRANCH   1   7
BRANCH   4  16
HETATM   16  C   UNL     1       8.318  -4.686   1.306  1.00  0.00     0.077 A 
HETATM   17  C   UNL     1       7.683  -5.926   1.246  1.00  0.00     0.050 A 
HETATM   18  C   UNL     1       8.468  -7.067   1.293  1.00  0.00     0.090 A 
HETATM   19  N   UNL     1       9.816  -7.050   1.406  1.00  0.00    -0.372 N 
HETATM   20  C   UNL     1      10.403  -5.831   1.460  1.00  0.00     0.132 A 
ATOM     21  HN  UNL     1      10.362  -7.911   1.448  1.00  0.00     0.164 HD
HETATM   22  C   UNL     1       9.702  -4.639   1.384  1.00  0.00     0.158 A 
HETATM   23  F   UNL     1      10.346  -3.465   1.456  1.00  0.00    -0.202 F 
ENDBRANCH   4  16
TORSDOF 3
