REMARK  4 active torsions:
REMARK  status: ('A' for Active; 'I' for Inactive)
REMARK    1  A    between atoms: N_4  and  C_5 
REMARK    2  A    between atoms: C_5  and  C_6 
REMARK    3  A    between atoms: C_6  and  N_7 
REMARK       I    between atoms: N_7  and  C_8 
REMARK       I    between atoms: C_8  and  N_10 
REMARK    4  A    between atoms: N_10  and  C_11 
ROOT
HETATM    1  N   UNL     1       3.160   4.136  -4.021  1.00  0.00    -0.341 N 
HETATM    2  C   UNL     1       3.209   5.469  -3.747  1.00  0.00     0.321 C 
HETATM    3  O   UNL     1       2.870   5.955  -2.671  1.00  0.00    -0.247 OA
HETATM    4  N   UNL     1       3.647   6.284  -4.750  1.00  0.00    -0.293 N 
HETATM    5  H   UNL     1       3.286   3.876  -4.994  1.00  0.00     0.164 HD
HETATM    6  H   UNL     1       3.605   7.268  -4.532  1.00  0.00     0.172 HD
ENDROOT
BRANCH   1   7
HETATM    7  C   UNL     1       2.577   3.169  -3.125  1.00  0.00     0.154 C 
BRANCH   7   8
HETATM    8  C   UNL     1       3.133   1.756  -3.377  1.00  0.00     0.292 C 
BRANCH   8   9
HETATM    9  N   UNL     1       2.581   0.746  -2.460  1.00  0.00     0.095 N 
HETATM   10  C   UNL     1       2.920   1.042  -1.053  1.00  0.00     0.303 C 
HETATM   11  C   UNL     1       2.361  -0.017  -0.089  1.00  0.00     0.146 C 
HETATM   12  C   UNL     1       0.836   0.034   0.011  1.00  0.00     0.041 C 
HETATM   13  O   UNL     1       2.829  -1.329  -0.438  1.00  0.00    -0.378 OA
HETATM   14  C   UNL     1       2.556  -1.667  -1.808  1.00  0.00     0.146 C 
HETATM   15  C   UNL     1       3.112  -0.601  -2.781  1.00  0.00     0.303 C 
HETATM   16  C   UNL     1       3.190  -3.029  -2.063  1.00  0.00     0.041 C 
ENDBRANCH   8   9
ENDBRANCH   7   8
ENDBRANCH   1   7
BRANCH   4  17
HETATM   17  C   UNL     1       4.096   5.905  -5.996  1.00  0.00     0.132 A 
HETATM   18  C   UNL     1       4.375   6.790  -7.061  1.00  0.00     0.084 A 
HETATM   19  C   UNL     1       4.734   5.969  -8.104  1.00  0.00     0.076 A 
HETATM   20  C   UNL     1       5.095   6.170  -9.514  1.00  0.00     0.079 C 
HETATM   21  O   UNL     1       4.719   4.681  -7.681  1.00  0.00    -0.241 OA
HETATM   22  N   UNL     1       4.307   4.636  -6.373  1.00  0.00    -0.245 N 
ATOM     23  HN  UNL     1       4.185   3.801  -5.800  1.00  0.00     0.196 HD
ENDBRANCH   4  17
TORSDOF 4
