REMARK  7 active torsions:
REMARK  status: ('A' for Active; 'I' for Inactive)
REMARK    1  A    between atoms: C_2  and  C_3 
REMARK    2  A    between atoms: C_2  and  N_10 
REMARK    3  A    between atoms: C_3  and  N_4 
REMARK    4  A    between atoms: N_10  and  C_11 
REMARK    5  A    between atoms: C_11  and  C_13 
REMARK       I    between atoms: C_13  and  N_15 
REMARK    6  A    between atoms: N_15  and  C_16 
REMARK    7  A    between atoms: C_16  and  C_17 
ROOT
HETATM    1  C   UNL     1       4.508   0.598   1.280  1.00  0.00     0.308 C 
HETATM    2  C   UNL     1       5.225   1.493   0.272  1.00  0.00     0.053 C 
ENDROOT
BRANCH   1   3
HETATM    3  N   UNL     1       3.024   0.637   1.167  1.00  0.00     0.102 N 
HETATM    4  H   UNL     1       2.646   0.021   1.890  1.00  0.00     0.317 HD
BRANCH   3   5
HETATM    5  C   UNL     1       2.480   0.249  -0.151  1.00  0.00     0.237 C 
HETATM    6  C   UNL     1       2.850  -1.202  -0.496  1.00  0.00     0.044 C 
BRANCH   5   7
HETATM    7  C   UNL     1       0.937   0.354  -0.184  1.00  0.00     0.183 C 
BRANCH   7   8
HETATM    8  N   UNL     1       0.394   1.684   0.011  1.00  0.00    -0.302 N 
HETATM    9  C   UNL     1       0.058   2.261   1.205  1.00  0.00     0.111 A 
HETATM   10  C   UNL     1      -0.637   3.406   0.901  1.00  0.00     0.037 A 
HETATM   11  C   UNL     1      -0.667   3.439  -0.505  1.00  0.00     0.108 A 
HETATM   12  N   UNL     1      -0.043   2.393  -1.054  1.00  0.00    -0.310 N 
ATOM     13  HN  UNL     1       0.076   2.179  -2.044  1.00  0.00     0.186 HD
ENDBRANCH   7   8
ENDBRANCH   5   7
ENDBRANCH   3   5
ENDBRANCH   1   3
BRANCH   1  14
HETATM   14  C   UNL     1       4.922   1.028   2.704  1.00  0.00     0.250 C 
HETATM   15  O   UNL     1       5.908   0.559   3.266  1.00  0.00    -0.271 OA
HETATM   16  N   UNL     1       4.122   1.998   3.259  1.00  0.00    -0.357 N 
HETATM   17  H   UNL     1       3.296   2.278   2.735  1.00  0.00     0.162 HD
BRANCH  16  18
HETATM   18  C   UNL     1       4.335   2.546   4.585  1.00  0.00     0.154 C 
BRANCH  18  19
HETATM   19  C   UNL     1       3.167   2.271   5.533  1.00  0.00     0.139 C 
HETATM   20  C   UNL     1       2.854   0.801   5.783  1.00  0.00     0.035 C 
HETATM   21  C   UNL     1       1.341   0.744   5.876  1.00  0.00     0.029 C 
HETATM   22  C   UNL     1       0.886   2.178   5.707  1.00  0.00     0.168 C 
HETATM   23  O   UNL     1       1.949   2.842   5.020  1.00  0.00    -0.384 OA
ENDBRANCH  18  19
ENDBRANCH  16  18
ENDBRANCH   1  14
TORSDOF 7
