REMARK  4 active torsions:
REMARK  status: ('A' for Active; 'I' for Inactive)
REMARK    1  A    between atoms: C_2  and  C_3 
REMARK       I    between atoms: C_3  and  N_5 
REMARK    2  A    between atoms: C_8  and  N_10 
REMARK       I    between atoms: N_10  and  C_11 
REMARK       I    between atoms: C_11  and  N_13 
REMARK    3  A    between atoms: N_13  and  C_14 
REMARK    4  A    between atoms: C_17  and  C_18 
ROOT
HETATM    1  N   UNL     1       6.009  -0.446  -3.852  1.00  0.00    -0.337 N 
HETATM    2  C   UNL     1       5.988   0.855  -4.329  1.00  0.00     0.322 C 
HETATM    3  O   UNL     1       6.395   1.785  -3.640  1.00  0.00    -0.247 OA
HETATM    4  N   UNL     1       5.426   0.933  -5.571  1.00  0.00    -0.289 N 
HETATM    5  H   UNL     1       6.250  -1.138  -4.549  1.00  0.00     0.164 HD
HETATM    6  H   UNL     1       4.817   0.195  -5.884  1.00  0.00     0.172 HD
ENDROOT
BRANCH   1   7
HETATM    7  C   UNL     1       6.517  -0.655  -2.493  1.00  0.00     0.105 C 
HETATM    8  C   UNL     1       6.607  -2.136  -2.127  1.00  0.00     0.047 C 
HETATM    9  C   UNL     1       5.237  -2.481  -1.555  1.00  0.00     0.128 C 
HETATM   10  N   UNL     1       4.617  -1.215  -1.220  1.00  0.00    -0.350 N 
HETATM   11  C   UNL     1       3.276  -1.149  -0.913  1.00  0.00     0.219 C 
HETATM   12  C   UNL     1       5.543  -0.109  -1.432  1.00  0.00     0.150 C 
HETATM   13  O   UNL     1       2.564  -2.154  -0.935  1.00  0.00    -0.273 OA
BRANCH  11  14
HETATM   14  C   UNL     1       2.730   0.214  -0.523  1.00  0.00     0.098 C 
HETATM   15  C   UNL     1       1.238   0.168  -0.231  1.00  0.00     0.014 C 
ENDBRANCH  11  14
ENDBRANCH   1   7
BRANCH   4  16
HETATM   16  C   UNL     1       5.318   2.143  -6.204  1.00  0.00     0.152 A 
HETATM   17  N   UNL     1       5.961   3.253  -5.949  1.00  0.00    -0.340 N 
HETATM   18  C   UNL     1       5.513   4.263  -6.774  1.00  0.00     0.017 A 
ATOM     19  HN  UNL     1       6.689   3.357  -5.242  1.00  0.00     0.168 HD
HETATM   20  C   UNL     1       4.529   3.878  -7.669  1.00  0.00     0.078 A 
HETATM   21  S   UNL     1       4.196   2.199  -7.484  1.00  0.00    -0.064 SA
BRANCH  18  22
HETATM   22  C   UNL     1       6.113   5.620  -6.613  1.00  0.00     0.053 C 
HETATM   23  C   UNL     1       7.346   5.807  -7.482  1.00  0.00     0.011 C 
ENDBRANCH  18  22
ENDBRANCH   4  16
TORSDOF 4
