REMARK  5 active torsions:
REMARK  status: ('A' for Active; 'I' for Inactive)
REMARK    1  A    between atoms: C_2  and  C_3 
REMARK    2  A    between atoms: C_2  and  N_10 
REMARK    3  A    between atoms: C_3  and  N_4 
REMARK    4  A    between atoms: N_10  and  C_11 
REMARK    5  A    between atoms: C_11  and  C_12 
REMARK       I    between atoms: N_15  and  C_18 
ROOT
HETATM    1  N   UNL     1       3.136  -0.285  -1.296  1.00  0.00     0.089 N 
HETATM    2  H   UNL     1       2.736   0.295  -2.037  1.00  0.00     0.316 HD
ENDROOT
BRANCH   1   3
HETATM    3  C   UNL     1       2.634   0.217   0.005  1.00  0.00     0.236 C 
HETATM    4  C   UNL     1       1.101   0.203  -0.096  1.00  0.00     0.044 C 
BRANCH   3   5
HETATM    5  C   UNL     1       3.115  -0.620   1.209  1.00  0.00     0.183 C 
BRANCH   5   6
HETATM    6  N   UNL     1       2.566  -0.188   2.483  1.00  0.00    -0.302 N 
HETATM    7  C   UNL     1       1.786  -0.923   3.329  1.00  0.00     0.111 A 
HETATM    8  C   UNL     1       1.509  -0.104   4.399  1.00  0.00     0.037 A 
HETATM    9  C   UNL     1       2.176   1.099   4.108  1.00  0.00     0.108 A 
HETATM   10  N   UNL     1       2.830   1.050   2.945  1.00  0.00    -0.310 N 
ATOM     11  HN  UNL     1       3.396   1.778   2.509  1.00  0.00     0.186 HD
ENDBRANCH   5   6
ENDBRANCH   3   5
ENDBRANCH   1   3
BRANCH   1  12
HETATM   12  C   UNL     1       4.594  -0.258  -1.422  1.00  0.00     0.274 C 
BRANCH  12  13
HETATM   13  C   UNL     1       5.021  -0.677  -2.845  1.00  0.00     0.017 C 
HETATM   14  C   UNL     1       4.552  -2.090  -3.239  1.00  0.00     0.026 C 
HETATM   15  C   UNL     1       5.325  -3.203  -2.532  1.00  0.00     0.126 C 
HETATM   16  N   UNL     1       6.773  -3.029  -2.661  1.00  0.00    -0.352 N 
HETATM   17  C   UNL     1       7.285  -1.706  -2.298  1.00  0.00     0.126 C 
HETATM   18  C   UNL     1       7.696  -4.055  -2.821  1.00  0.00     0.215 C 
HETATM   19  C   UNL     1       6.543  -0.591  -3.026  1.00  0.00     0.026 C 
HETATM   20  O   UNL     1       8.913  -3.845  -2.842  1.00  0.00    -0.274 OA
HETATM   21  C   UNL     1       7.207  -5.469  -3.014  1.00  0.00     0.117 C 
ENDBRANCH  12  13
ENDBRANCH   1  12
TORSDOF 5
