REMARK  5 active torsions:
REMARK  status: ('A' for Active; 'I' for Inactive)
REMARK    1  A    between atoms: C_2  and  C_3 
REMARK    2  A    between atoms: C_2  and  N_5 
REMARK    3  A    between atoms: C_2  and  C_16 
REMARK    4  A    between atoms: C_3  and  O_4 
REMARK       I    between atoms: N_5  and  C_6 
REMARK       I    between atoms: C_6  and  N_8 
REMARK    5  A    between atoms: N_8  and  C_9 
ROOT
HETATM    1  N   UNL     1       2.980  -1.068  -1.080  1.00  0.00    -0.332 N 
HETATM    2  C   UNL     1       4.315  -1.364  -1.247  1.00  0.00     0.321 C 
HETATM    3  O   UNL     1       5.198  -0.784  -0.627  1.00  0.00    -0.247 OA
HETATM    4  N   UNL     1       4.547  -2.326  -2.199  1.00  0.00    -0.308 N 
HETATM    5  H   UNL     1       2.388  -1.888  -1.118  1.00  0.00     0.165 HD
HETATM    6  H   UNL     1       3.804  -2.459  -2.875  1.00  0.00     0.170 HD
ENDROOT
BRANCH   1   7
HETATM    7  C   UNL     1       2.548  -0.051  -0.068  1.00  0.00     0.055 C 
HETATM    8  C   UNL     1       1.008  -0.006  -0.094  1.00  0.00     0.041 C 
BRANCH   7   9
HETATM    9  C   UNL     1       2.951  -0.554   1.361  1.00  0.00     0.195 C 
BRANCH   9  10
HETATM   10  O   UNL     1       2.307  -1.804   1.645  1.00  0.00    -0.398 OA
HETATM   11  H   UNL     1       2.192  -1.847   2.610  1.00  0.00     0.209 HD
ENDBRANCH   9  10
ENDBRANCH   7   9
BRANCH   7  12
HETATM   12  C   UNL     1       3.215   1.361  -0.376  1.00  0.00     0.015 C 
HETATM   13  C   UNL     1       2.883   2.522   0.583  1.00  0.00     0.007 C 
HETATM   14  C   UNL     1       1.610   3.287   0.248  1.00  0.00     0.000 C 
HETATM   15  C   UNL     1       1.615   3.782  -1.190  1.00  0.00     0.000 C 
HETATM   16  C   UNL     1       1.867   2.657  -2.185  1.00  0.00     0.000 C 
HETATM   17  C   UNL     1       3.108   1.838  -1.846  1.00  0.00     0.007 C 
ENDBRANCH   7  12
ENDBRANCH   1   7
BRANCH   4  18
HETATM   18  C   UNL     1       5.838  -2.803  -2.528  1.00  0.00     0.051 A 
HETATM   19  C   UNL     1       6.938  -2.685  -1.671  1.00  0.00     0.032 A 
HETATM   20  C   UNL     1       8.200  -3.105  -2.079  1.00  0.00     0.019 A 
HETATM   21  C   UNL     1       8.327  -3.668  -3.334  1.00  0.00     0.088 A 
HETATM   22  N   UNL     1       7.290  -3.846  -4.180  1.00  0.00    -0.373 N 
HETATM   23  C   UNL     1       6.074  -3.413  -3.756  1.00  0.00     0.117 A 
ATOM     24  HN  UNL     1       7.413  -4.284  -5.093  1.00  0.00     0.164 HD
ENDBRANCH   4  18
TORSDOF 5
