REMARK  7 active torsions:
REMARK  status: ('A' for Active; 'I' for Inactive)
REMARK    1  A    between atoms: N_2  and  C_16 
REMARK    2  A    between atoms: C_6  and  N_7 
REMARK    3  A    between atoms: N_8  and  C_18 
REMARK    4  A    between atoms: C_16  and  C_17 
REMARK    5  A    between atoms: C_17  and  C_24 
REMARK    6  A    between atoms: C_17  and  O_28 
REMARK    7  A    between atoms: C_18  and  C_20 
REMARK       I    between atoms: C_20  and  N_27 
ROOT
HETATM    1  C   UNL     1       0.401  -0.817  -0.224  1.00  0.00     0.117 A 
HETATM    2  N   UNL     1       1.555   1.031  -0.267  1.00  0.00    -0.325 N 
HETATM    3  C   UNL     1       0.272   0.560  -0.286  1.00  0.00     0.140 A 
HETATM    4  N   UNL     1       1.734  -1.183  -0.230  1.00  0.00    -0.346 N 
ATOM      5  HN  UNL     1       2.121  -2.127  -0.215  1.00  0.00     0.167 HD
HETATM    6  C   UNL     1      -0.786  -1.572  -0.151  1.00  0.00     0.115 A 
HETATM    7  C   UNL     1       2.393  -0.044  -0.260  1.00  0.00     0.185 A 
HETATM    8  N   UNL     1      -0.868   1.268  -0.329  1.00  0.00    -0.336 N 
ATOM      9  HN  UNL     1      -0.916   2.285  -0.389  1.00  0.00     0.168 HD
HETATM   10  N   UNL     1      -1.968  -0.896  -0.182  1.00  0.00    -0.341 N 
ATOM     11  HN  UNL     1      -2.855  -1.396  -0.131  1.00  0.00     0.167 HD
HETATM   12  C   UNL     1      -1.940   0.453  -0.282  1.00  0.00     0.183 A 
ENDROOT
BRANCH   6  13
HETATM   13  N   UNL     1      -0.752  -2.971  -0.050  1.00  0.00    -0.257 NA
HETATM   14  C   UNL     1      -1.864  -3.527   0.737  1.00  0.00     0.200 C 
HETATM   15  C   UNL     1      -1.847  -5.067   0.774  1.00  0.00     0.233 C 
HETATM   16  N   UNL     1      -1.496  -5.686  -0.429  1.00  0.00    -0.341 N 
HETATM   17  O   UNL     1      -2.266  -5.694   1.746  1.00  0.00    -0.272 OA
HETATM   18  C   UNL     1      -0.419  -5.081  -1.217  1.00  0.00     0.141 C 
HETATM   19  C   UNL     1      -0.593  -3.569  -1.378  1.00  0.00     0.117 C 
BRANCH  16  20
HETATM   20  C   UNL     1      -1.725  -7.121  -0.587  1.00  0.00     0.228 C 
BRANCH  20  21
HETATM   21  C   UNL     1      -2.335  -7.455  -1.953  1.00  0.00     0.233 C 
HETATM   22  O   UNL     1      -2.240  -8.555  -2.483  1.00  0.00    -0.272 OA
HETATM   23  N   UNL     1      -3.105  -6.478  -2.528  1.00  0.00    -0.369 N 
HETATM   24  H   UNL     1      -3.389  -5.668  -1.990  1.00  0.00     0.159 HD
HETATM   25  H   UNL     1      -3.609  -6.709  -3.374  1.00  0.00     0.159 HD
ENDBRANCH  20  21
ENDBRANCH  16  20
ENDBRANCH   6  13
BRANCH   2  26
HETATM   26  C   UNL     1       1.970   2.412  -0.227  1.00  0.00     0.165 C 
BRANCH  26  27
HETATM   27  C   UNL     1       1.539   3.184   1.021  1.00  0.00     0.165 C 
BRANCH  27  28
HETATM   28  C   UNL     1       1.898   2.514   2.357  1.00  0.00     0.151 C 
HETATM   29  O   UNL     1       1.415   3.357   3.429  1.00  0.00    -0.383 OA
HETATM   30  C   UNL     1       2.266   3.167   4.571  1.00  0.00     0.168 C 
HETATM   31  C   UNL     1       3.381   2.229   4.152  1.00  0.00     0.029 C 
HETATM   32  C   UNL     1       3.382   2.359   2.647  1.00  0.00     0.036 C 
ENDBRANCH  27  28
BRANCH  27  33
HETATM   33  O   UNL     1       2.160   4.481   0.968  1.00  0.00    -0.391 OA
HETATM   34  H   UNL     1       2.012   4.872   1.853  1.00  0.00     0.210 HD
ENDBRANCH  27  33
ENDBRANCH  26  27
ENDBRANCH   2  26
TORSDOF 7
