REMARK  5 active torsions:
REMARK  status: ('A' for Active; 'I' for Inactive)
REMARK    1  A    between atoms: N_8  and  C_9 
REMARK    2  A    between atoms: C_9  and  C_10 
REMARK    3  A    between atoms: C_10  and  O_11 
REMARK    4  A    between atoms: C_10  and  C_12 
REMARK    5  A    between atoms: C_12  and  N_13 
ROOT
HETATM    1  N   UNL     1       9.399   2.551   2.950  1.00  0.00    -0.283 N 
HETATM    2  C   UNL     1      10.255   1.956   3.825  1.00  0.00     0.202 A 
HETATM    3  N   UNL     1      10.193   2.565   4.986  1.00  0.00    -0.327 N 
ATOM      4  HN  UNL     1      10.715   2.363   5.839  1.00  0.00     0.169 HD
HETATM    5  C   UNL     1       9.252   3.541   4.769  1.00  0.00     0.204 A 
HETATM    6  C   UNL     1       8.835   4.450   5.797  1.00  0.00     0.138 C 
HETATM    7  N   UNL     1       8.498   5.188   6.634  1.00  0.00    -0.188 NA
HETATM    8  N   UNL     1       8.754   3.586   3.522  1.00  0.00    -0.273 N 
ATOM      9  HN  UNL     1       8.073   4.229   3.118  1.00  0.00     0.189 HD
ENDROOT
BRANCH   1  10
HETATM   10  C   UNL     1       9.143   2.178   1.569  1.00  0.00     0.183 C 
BRANCH  10  11
HETATM   11  C   UNL     1       8.044   1.118   1.475  1.00  0.00     0.156 C 
BRANCH  11  12
HETATM   12  C   UNL     1       7.691   0.791   0.014  1.00  0.00     0.163 C 
BRANCH  12  13
HETATM   13  N   UNL     1       6.599  -0.165  -0.081  1.00  0.00    -0.339 N 
HETATM   14  C   UNL     1       6.753  -1.525  -0.104  1.00  0.00     0.184 A 
HETATM   15  N   UNL     1       5.597  -2.145  -0.124  1.00  0.00    -0.350 N 
HETATM   16  C   UNL     1       4.655  -1.147  -0.118  1.00  0.00     0.060 A 
ATOM     17  HN  UNL     1       5.434  -3.152  -0.140  1.00  0.00     0.166 HD
HETATM   18  C   UNL     1       3.257  -1.247  -0.108  1.00  0.00     0.039 A 
HETATM   19  C   UNL     1       5.254   0.110  -0.119  1.00  0.00     0.062 A 
HETATM   20  C   UNL     1       2.476  -0.076  -0.105  1.00  0.00    -0.054 A 
HETATM   21  C   UNL     1       0.976  -0.210  -0.077  1.00  0.00     0.049 C 
HETATM   22  C   UNL     1       3.103   1.189  -0.121  1.00  0.00    -0.054 A 
HETATM   23  C   UNL     1       4.510   1.295  -0.133  1.00  0.00     0.039 A 
HETATM   24  C   UNL     1       2.284   2.455  -0.113  1.00  0.00     0.049 C 
ENDBRANCH  12  13
ENDBRANCH  11  12
BRANCH  11  25
HETATM   25  O   UNL     1       8.499  -0.062   2.157  1.00  0.00    -0.392 OA
HETATM   26  H   UNL     1       9.073  -0.593   1.579  1.00  0.00     0.210 HD
ENDBRANCH  11  25
ENDBRANCH  10  11
ENDBRANCH   1  10
TORSDOF 5
