REMARK  6 active torsions:
REMARK  status: ('A' for Active; 'I' for Inactive)
REMARK    1  A    between atoms: C_5  and  O_6 
REMARK    2  A    between atoms: O_6  and  C_7 
REMARK    3  A    between atoms: C_7  and  C_8 
REMARK    4  A    between atoms: C_8  and  O_9 
REMARK    5  A    between atoms: C_8  and  C_10 
REMARK    6  A    between atoms: C_10  and  N_11 
ROOT
HETATM    1  C   UNL     1       8.809  -0.685  -0.873  1.00  0.00     0.160 C 
ENDROOT
BRANCH   1   2
HETATM    2  C   UNL     1       7.327  -1.030  -0.620  1.00  0.00     0.209 C 
BRANCH   2   3
HETATM    3  O   UNL     1       6.599   0.188  -0.452  1.00  0.00    -0.349 OA
BRANCH   3   4
HETATM    4  C   UNL     1       5.262   0.077  -0.182  1.00  0.00     0.068 A 
HETATM    5  C   UNL     1       4.708   1.159   0.503  1.00  0.00     0.037 A 
HETATM    6  C   UNL     1       3.341   1.198   0.792  1.00  0.00     0.009 A 
HETATM    7  C   UNL     1       2.503   0.156   0.383  1.00  0.00    -0.062 A 
HETATM    8  C   UNL     1       1.026   0.211   0.632  1.00  0.00     0.048 C 
HETATM    9  C   UNL     1       3.062  -0.931  -0.305  1.00  0.00     0.009 A 
HETATM   10  C   UNL     1       4.434  -0.972  -0.585  1.00  0.00     0.037 A 
ENDBRANCH   3   4
ENDBRANCH   2   3
ENDBRANCH   1   2
BRANCH   1  11
HETATM   11  O   UNL     1       9.360   0.048   0.230  1.00  0.00    -0.392 OA
HETATM   12  H   UNL     1       8.910  -0.216   1.050  1.00  0.00     0.210 HD
ENDBRANCH   1  11
BRANCH   1  13
HETATM   13  C   UNL     1       9.622  -1.967  -1.078  1.00  0.00     0.164 C 
BRANCH  13  14
HETATM   14  N   UNL     1      11.007  -1.715  -1.429  1.00  0.00    -0.339 N 
HETATM   15  C   UNL     1      12.028  -1.581  -0.527  1.00  0.00     0.184 A 
HETATM   16  N   UNL     1      13.191  -1.449  -1.122  1.00  0.00    -0.350 N 
HETATM   17  C   UNL     1      12.909  -1.474  -2.464  1.00  0.00     0.060 A 
ATOM     18  HN  UNL     1      14.106  -1.349  -0.682  1.00  0.00     0.166 HD
HETATM   19  C   UNL     1      13.782  -1.362  -3.557  1.00  0.00     0.032 A 
HETATM   20  C   UNL     1      11.543  -1.640  -2.691  1.00  0.00     0.062 A 
HETATM   21  C   UNL     1      13.254  -1.419  -4.851  1.00  0.00     0.002 A 
HETATM   22  C   UNL     1      11.883  -1.584  -5.054  1.00  0.00     0.002 A 
HETATM   23  C   UNL     1      10.994  -1.698  -3.978  1.00  0.00     0.032 A 
ENDBRANCH  13  14
ENDBRANCH   1  13
TORSDOF 6
