REMARK  4 active torsions:
REMARK  status: ('A' for Active; 'I' for Inactive)
REMARK    1  A    between atoms: C_6  and  C_7 
REMARK    2  A    between atoms: C_7  and  N_8 
REMARK    3  A    between atoms: N_8  and  C_9 
REMARK    4  A    between atoms: C_14  and  C_17 
ROOT
HETATM    1  C   UNL     1       5.145  -4.348  -2.459  1.00  0.00     0.157 A 
HETATM    2  N   UNL     1       4.449  -5.469  -2.218  1.00  0.00    -0.343 N 
ATOM      3  HN  UNL     1       3.506  -5.433  -1.832  1.00  0.00     0.167 HD
HETATM    4  C   UNL     1       5.039  -6.640  -2.503  1.00  0.00     0.093 A 
HETATM    5  C   UNL     1       6.304  -6.738  -3.019  1.00  0.00     0.051 A 
HETATM    6  C   UNL     1       6.962  -5.542  -3.245  1.00  0.00     0.120 A 
HETATM    7  N   UNL     1       6.379  -4.342  -2.973  1.00  0.00    -0.329 N 
ATOM      8  HN  UNL     1       6.868  -3.466  -3.156  1.00  0.00     0.168 HD
ENDROOT
BRANCH   1   9
HETATM    9  N   UNL     1       4.594  -3.117  -2.153  1.00  0.00    -0.262 NA
HETATM   10  H   UNL     1       5.070  -2.409  -2.703  1.00  0.00     0.130 HD
BRANCH   9  11
HETATM   11  C   UNL     1       3.140  -3.060  -2.229  1.00  0.00     0.129 C 
BRANCH  11  12
HETATM   12  C   UNL     1       2.611  -1.675  -1.822  1.00  0.00     0.163 C 
HETATM   13  O   UNL     1       3.149  -0.676  -2.714  1.00  0.00    -0.381 OA
HETATM   14  C   UNL     1       2.651   0.625  -2.372  1.00  0.00     0.198 C 
HETATM   15  C   UNL     1       2.964   0.991  -0.911  1.00  0.00     0.298 C 
HETATM   16  N   UNL     1       2.489   0.000   0.076  1.00  0.00     0.088 N 
HETATM   17  C   UNL     1       1.041   0.054   0.258  1.00  0.00     0.310 C 
HETATM   18  C   UNL     1       2.946  -1.343  -0.349  1.00  0.00     0.305 C 
ENDBRANCH  11  12
ENDBRANCH   9  11
ENDBRANCH   1   9
BRANCH   6  19
HETATM   19  C   UNL     1       8.374  -5.560  -3.805  1.00  0.00     0.432 C 
HETATM   20  F   UNL     1       8.841  -6.825  -4.036  1.00  0.00    -0.165 F 
HETATM   21  F   UNL     1       8.485  -4.913  -5.000  1.00  0.00    -0.165 F 
HETATM   22  F   UNL     1       9.291  -4.986  -2.975  1.00  0.00    -0.165 F 
ENDBRANCH   6  19
TORSDOF 4
