REMARK  4 active torsions:
REMARK  status: ('A' for Active; 'I' for Inactive)
REMARK       I    between atoms: C_2  and  N_3 
REMARK       I    between atoms: C_2  and  N_13 
REMARK    1  A    between atoms: N_3  and  C_4 
REMARK    2  A    between atoms: C_4  and  C_5 
REMARK    3  A    between atoms: N_8  and  C_10 
REMARK    4  A    between atoms: N_13  and  C_14 
ROOT
HETATM    1  O   UNL     1       2.908  -0.111  -0.482  1.00  0.00    -0.247 OA
HETATM    2  C   UNL     1       2.537  -1.260  -0.715  1.00  0.00     0.321 C 
HETATM    3  N   UNL     1       2.143  -2.131   0.246  1.00  0.00    -0.342 N 
HETATM    4  N   UNL     1       2.518  -1.704  -2.003  1.00  0.00    -0.295 N 
HETATM    5  H   UNL     1       1.813  -3.032  -0.094  1.00  0.00     0.164 HD
HETATM    6  H   UNL     1       2.822  -0.999  -2.656  1.00  0.00     0.172 HD
ENDROOT
BRANCH   3   7
HETATM    7  C   UNL     1       2.124  -1.843   1.664  1.00  0.00     0.130 C 
BRANCH   7   8
HETATM    8  C   UNL     1       3.121  -2.715   2.424  1.00  0.00     0.033 C 
HETATM    9  C   UNL     1       2.830  -4.211   2.334  1.00  0.00     0.038 C 
HETATM   10  C   UNL     1       3.137  -4.769   3.719  1.00  0.00     0.273 C 
HETATM   11  N   UNL     1       3.666  -3.667   4.535  1.00  0.00     0.093 N 
HETATM   12  C   UNL     1       3.114  -2.444   3.925  1.00  0.00     0.279 C 
BRANCH  11  13
HETATM   13  C   UNL     1       5.139  -3.652   4.609  1.00  0.00     0.223 A 
HETATM   14  C   UNL     1       5.871  -4.724   5.373  1.00  0.00     0.038 A 
HETATM   15  C   UNL     1       5.768  -3.342   5.943  1.00  0.00     0.038 A 
ENDBRANCH  11  13
ENDBRANCH   7   8
ENDBRANCH   3   7
BRANCH   4  16
HETATM   16  C   UNL     1       2.174  -2.962  -2.507  1.00  0.00     0.108 A 
HETATM   17  C   UNL     1       2.280  -3.154  -3.881  1.00  0.00     0.049 A 
HETATM   18  C   UNL     1       1.958  -4.399  -4.419  1.00  0.00     0.005 A 
HETATM   19  C   UNL     1       1.541  -5.416  -3.572  1.00  0.00     0.017 A 
HETATM   20  C   UNL     1       1.460  -5.143  -2.218  1.00  0.00     0.089 A 
HETATM   21  N   UNL     1       1.765  -3.944  -1.671  1.00  0.00    -0.352 N 
ATOM     22  HN  UNL     1       1.689  -3.786  -0.666  1.00  0.00     0.166 HD
ENDBRANCH   4  16
TORSDOF 4
