REMARK  4 active torsions:
REMARK  status: ('A' for Active; 'I' for Inactive)
REMARK    1  A    between atoms: C_4  and  C_5 
REMARK    2  A    between atoms: C_5  and  C_6 
REMARK    3  A    between atoms: C_6  and  N_7 
REMARK       I    between atoms: N_7  and  C_8 
REMARK       I    between atoms: C_8  and  N_10 
REMARK    4  A    between atoms: N_10  and  C_11 
ROOT
HETATM    1  N   UNL     1       6.706   3.841  -0.017  1.00  0.00    -0.343 N 
HETATM    2  C   UNL     1       6.430   5.187   0.037  1.00  0.00     0.316 C 
HETATM    3  O   UNL     1       5.290   5.638   0.041  1.00  0.00    -0.247 OA
HETATM    4  N   UNL     1       7.546   5.972   0.074  1.00  0.00    -0.338 N 
HETATM    5  H   UNL     1       7.573   3.549   0.414  1.00  0.00     0.164 HD
HETATM    6  H   UNL     1       8.446   5.531  -0.065  1.00  0.00     0.164 HD
ENDROOT
BRANCH   1   7
HETATM    7  C   UNL     1       5.567   2.944   0.104  1.00  0.00     0.129 C 
BRANCH   7   8
HETATM    8  C   UNL     1       5.907   1.463   0.011  1.00  0.00     0.061 C 
BRANCH   8   9
HETATM    9  C   UNL     1       6.754   0.971   1.136  1.00  0.00    -0.023 A 
HETATM   10  C   UNL     1       6.501   1.017   2.494  1.00  0.00     0.118 A 
HETATM   11  N   UNL     1       7.570   0.433   3.104  1.00  0.00    -0.308 N 
HETATM   12  C   UNL     1       7.765   0.234   4.519  1.00  0.00     0.177 C 
HETATM   13  N   UNL     1       8.507   0.006   2.240  1.00  0.00    -0.310 N 
HETATM   14  C   UNL     1       8.002   0.317   1.046  1.00  0.00     0.115 A 
ATOM     15  HN  UNL     1       9.396  -0.449   2.449  1.00  0.00     0.186 HD
ENDBRANCH   8   9
ENDBRANCH   7   8
ENDBRANCH   1   7
BRANCH   4  16
HETATM   16  C   UNL     1       7.469   7.428   0.066  1.00  0.00     0.101 C 
HETATM   17  C   UNL     1       6.804   8.011   1.326  1.00  0.00     0.041 C 
HETATM   18  C   UNL     1       6.454   9.476   1.066  1.00  0.00     0.142 C 
HETATM   19  S   UNL     1       6.539   9.724  -0.697  1.00  0.00     0.146 S 
HETATM   20  O   UNL     1       5.270  10.221  -1.181  1.00  0.00    -0.228 OA
HETATM   21  O   UNL     1       7.791  10.390  -0.998  1.00  0.00    -0.228 OA
HETATM   22  C   UNL     1       6.715   8.013  -1.130  1.00  0.00     0.165 C 
ENDBRANCH   4  16
TORSDOF 4
