REMARK  4 active torsions:
REMARK  status: ('A' for Active; 'I' for Inactive)
REMARK    1  A    between atoms: C_2  and  C_4 
REMARK       I    between atoms: N_8  and  C_9 
REMARK       I    between atoms: C_9  and  N_11 
REMARK    2  A    between atoms: N_11  and  C_12 
REMARK    3  A    between atoms: C_12  and  C_13 
REMARK    4  A    between atoms: C_13  and  C_14 
ROOT
HETATM    1  C   UNL     1       3.747   2.922  -1.044  1.00  0.00     0.092 C 
HETATM    2  C   UNL     1       4.402   1.868  -1.953  1.00  0.00     0.027 C 
HETATM    3  C   UNL     1       4.008   0.512  -1.374  1.00  0.00     0.022 C 
HETATM    4  C   UNL     1       3.034   0.807  -0.249  1.00  0.00     0.128 C 
HETATM    5  N   UNL     1       2.636   2.193  -0.423  1.00  0.00    -0.329 N 
HETATM    6  C   UNL     1       1.547   2.776   0.197  1.00  0.00     0.318 C 
HETATM    7  O   UNL     1       1.182   3.930   0.007  1.00  0.00    -0.247 OA
HETATM    8  N   UNL     1       0.867   1.935   1.060  1.00  0.00    -0.343 N 
HETATM    9  H   UNL     1       1.432   1.247   1.530  1.00  0.00     0.164 HD
ENDROOT
BRANCH   8  10
HETATM   10  C   UNL     1      -0.381   2.332   1.710  1.00  0.00     0.129 C 
BRANCH  10  11
HETATM   11  C   UNL     1      -0.631   1.575   3.022  1.00  0.00     0.062 C 
BRANCH  11  12
HETATM   12  C   UNL     1      -1.890   1.993   3.719  1.00  0.00    -0.009 A 
HETATM   13  C   UNL     1      -3.184   1.399   3.652  1.00  0.00     0.030 A 
HETATM   14  C   UNL     1      -3.644   0.209   2.891  1.00  0.00     0.070 C 
HETATM   15  N   UNL     1      -4.070   2.048   4.411  1.00  0.00    -0.303 N 
HETATM   16  N   UNL     1      -3.369   3.047   4.967  1.00  0.00    -0.300 N 
ATOM     17  HN  UNL     1      -5.059   1.832   4.539  1.00  0.00     0.186 HD
HETATM   18  C   UNL     1      -4.052   3.968   5.847  1.00  0.00     0.177 C 
HETATM   19  C   UNL     1      -2.047   3.049   4.609  1.00  0.00     0.032 A 
HETATM   20  C   UNL     1      -1.054   4.028   5.124  1.00  0.00     0.070 C 
ENDBRANCH  11  12
ENDBRANCH  10  11
ENDBRANCH   8  10
BRANCH   1  21
HETATM   21  C   UNL     1       3.528   4.291  -1.729  1.00  0.00     0.000 C 
HETATM   22  C   UNL     1       4.876   4.881  -2.189  1.00  0.00     0.011 C 
HETATM   23  C   UNL     1       2.563   4.273  -2.915  1.00  0.00     0.011 C 
ENDBRANCH   1  21
TORSDOF 4
