REMARK  5 active torsions:
REMARK  status: ('A' for Active; 'I' for Inactive)
REMARK    1  A    between atoms: C_2  and  O_4 
REMARK    2  A    between atoms: C_2  and  C_5 
REMARK    3  A    between atoms: C_5  and  N_6 
REMARK    4  A    between atoms: C_9  and  C_10 
REMARK    5  A    between atoms: C_16  and  C_21 
ROOT
HETATM    1  N   UNL     1       4.672   0.560   1.335  1.00  0.00    -0.239 N 
HETATM    2  N   UNL     1       5.348  -0.625   1.459  1.00  0.00    -0.291 N 
ATOM      3  HN  UNL     1       4.846  -1.510   1.537  1.00  0.00     0.187 HD
HETATM    4  C   UNL     1       6.648  -0.590   1.474  1.00  0.00     0.086 C 
HETATM    5  C   UNL     1       7.350   0.733   1.222  1.00  0.00     0.075 C 
HETATM    6  N   UNL     1       6.659   1.832   1.228  1.00  0.00    -0.304 N 
ATOM      7  HN  UNL     1       7.140   2.728   1.151  1.00  0.00     0.171 HD
HETATM    8  C   UNL     1       5.299   1.805   1.336  1.00  0.00     0.341 C 
HETATM    9  O   UNL     1       4.656   2.854   1.366  1.00  0.00    -0.245 OA
ENDROOT
BRANCH   1  10
HETATM   10  C   UNL     1       3.215   0.470   1.289  1.00  0.00     0.191 C 
BRANCH  10  11
HETATM   11  C   UNL     1       2.642   0.239  -0.130  1.00  0.00     0.069 C 
HETATM   12  C   UNL     1       3.120  -1.087  -0.729  1.00  0.00     0.047 C 
HETATM   13  C   UNL     1       2.960   1.399  -1.078  1.00  0.00     0.047 C 
BRANCH  11  14
HETATM   14  O   UNL     1       1.210   0.157  -0.012  1.00  0.00    -0.389 OA
HETATM   15  H   UNL     1       0.842   0.067  -0.908  1.00  0.00     0.210 HD
ENDBRANCH  11  14
ENDBRANCH  10  11
ENDBRANCH   1  10
BRANCH   4  16
HETATM   16  C   UNL     1       7.328  -1.878   1.806  1.00  0.00    -0.006 A 
HETATM   17  C   UNL     1       6.687  -3.076   1.440  1.00  0.00     0.014 A 
HETATM   18  C   UNL     1       7.197  -4.311   1.843  1.00  0.00     0.001 A 
HETATM   19  C   UNL     1       8.364  -4.362   2.599  1.00  0.00     0.000 A 
HETATM   20  C   UNL     1       9.019  -3.181   2.950  1.00  0.00     0.001 A 
HETATM   21  C   UNL     1       8.493  -1.939   2.575  1.00  0.00     0.014 A 
ENDBRANCH   4  16
BRANCH   5  22
HETATM   22  C   UNL     1       8.798   0.880   0.879  1.00  0.00    -0.007 A 
HETATM   23  C   UNL     1       9.532  -0.097   0.202  1.00  0.00     0.014 A 
HETATM   24  C   UNL     1      10.866   0.142  -0.151  1.00  0.00     0.001 A 
HETATM   25  C   UNL     1      11.459   1.376   0.119  1.00  0.00     0.000 A 
HETATM   26  C   UNL     1      10.728   2.369   0.761  1.00  0.00     0.001 A 
HETATM   27  C   UNL     1       9.410   2.119   1.147  1.00  0.00     0.014 A 
ENDBRANCH   5  22
TORSDOF 5
