REMARK  4 active torsions:
REMARK  status: ('A' for Active; 'I' for Inactive)
REMARK    1  A    between atoms: C_2  and  C_3 
REMARK    2  A    between atoms: C_2  and  N_10 
REMARK    3  A    between atoms: C_3  and  N_4 
REMARK       I    between atoms: N_10  and  C_11 
REMARK       I    between atoms: C_11  and  N_13 
REMARK    4  A    between atoms: N_13  and  C_14 
ROOT
HETATM    1  N   UNL     1       3.381  -1.433  -0.778  1.00  0.00    -0.337 N 
HETATM    2  C   UNL     1       4.756  -1.315  -0.873  1.00  0.00     0.322 C 
HETATM    3  O   UNL     1       5.363  -0.366  -0.399  1.00  0.00    -0.247 OA
HETATM    4  N   UNL     1       5.285  -2.407  -1.510  1.00  0.00    -0.288 N 
HETATM    5  H   UNL     1       2.950  -1.838  -1.597  1.00  0.00     0.164 HD
HETATM    6  H   UNL     1       4.695  -3.215  -1.632  1.00  0.00     0.172 HD
ENDROOT
BRANCH   1   7
HETATM    7  C   UNL     1       2.562  -0.444  -0.052  1.00  0.00     0.110 C 
HETATM    8  C   UNL     1       1.090  -0.829  -0.232  1.00  0.00     0.034 C 
BRANCH   7   9
HETATM    9  C   UNL     1       2.955  -0.368   1.457  1.00  0.00     0.297 C 
BRANCH   9  10
HETATM   10  N   UNL     1       2.145   0.516   2.320  1.00  0.00     0.094 N 
HETATM   11  C   UNL     1       2.251   1.952   1.969  1.00  0.00     0.298 C 
HETATM   12  C   UNL     1       3.579   2.622   2.366  1.00  0.00     0.198 C 
HETATM   13  O   UNL     1       3.858   2.445   3.761  1.00  0.00    -0.388 OA
HETATM   14  C   UNL     1       3.891   1.051   4.090  1.00  0.00     0.198 C 
HETATM   15  C   UNL     1       2.555   0.369   3.741  1.00  0.00     0.298 C 
ENDBRANCH   9  10
ENDBRANCH   7   9
ENDBRANCH   1   7
BRANCH   4  16
HETATM   16  C   UNL     1       6.616  -2.664  -1.713  1.00  0.00     0.169 A 
HETATM   17  N   UNL     1       7.052  -3.841  -2.109  1.00  0.00    -0.279 N 
HETATM   18  N   UNL     1       8.429  -3.876  -2.220  1.00  0.00    -0.296 N 
ATOM     19  HN  UNL     1       6.444  -4.635  -2.311  1.00  0.00     0.189 HD
HETATM   20  C   UNL     1       8.975  -2.715  -1.924  1.00  0.00     0.066 A 
ATOM     21  HN  UNL     1       8.959  -4.702  -2.498  1.00  0.00     0.187 HD
HETATM   22  C   UNL     1      10.429  -2.428  -1.934  1.00  0.00     0.078 C 
HETATM   23  S   UNL     1       7.839  -1.494  -1.517  1.00  0.00    -0.038 SA
ENDBRANCH   4  16
TORSDOF 4
