REMARK  5 active torsions:
REMARK  status: ('A' for Active; 'I' for Inactive)
REMARK    1  A    between atoms: C_2  and  N_3 
REMARK    2  A    between atoms: C_2  and  C_13 
REMARK       I    between atoms: N_3  and  C_4 
REMARK       I    between atoms: C_4  and  N_6 
REMARK    3  A    between atoms: N_6  and  C_7 
REMARK    4  A    between atoms: C_7  and  C_8 
REMARK    5  A    between atoms: C_13  and  N_15 
ROOT
HETATM    1  N   UNL     1       2.919   1.528   0.572  1.00  0.00    -0.337 N 
HETATM    2  C   UNL     1       2.621   2.670  -0.125  1.00  0.00     0.316 C 
HETATM    3  O   UNL     1       2.106   2.675  -1.235  1.00  0.00    -0.247 OA
HETATM    4  N   UNL     1       2.988   3.797   0.567  1.00  0.00    -0.343 N 
HETATM    5  H   UNL     1       2.941   1.638   1.578  1.00  0.00     0.164 HD
HETATM    6  H   UNL     1       3.822   3.681   1.125  1.00  0.00     0.164 HD
ENDROOT
BRANCH   1   7
HETATM    7  C   UNL     1       2.568   0.212   0.027  1.00  0.00     0.106 C 
HETATM    8  C   UNL     1       1.116  -0.110   0.395  1.00  0.00     0.034 C 
BRANCH   7   9
HETATM    9  C   UNL     1       3.552  -0.893   0.495  1.00  0.00     0.127 C 
HETATM   10  C   UNL     1       3.284  -2.242  -0.181  1.00  0.00     0.036 C 
BRANCH   9  11
HETATM   11  N   UNL     1       4.954  -0.530   0.305  1.00  0.00    -0.281 N 
HETATM   12  C   UNL     1       5.537   0.173  -0.706  1.00  0.00     0.201 A 
HETATM   13  N   UNL     1       6.831   0.255  -0.496  1.00  0.00    -0.346 N 
HETATM   14  C   UNL     1       6.998  -0.433   0.669  1.00  0.00     0.198 A 
ATOM     15  HN  UNL     1       7.538   0.720  -1.065  1.00  0.00     0.167 HD
HETATM   16  N   UNL     1       5.880  -0.932   1.202  1.00  0.00    -0.293 N 
ATOM     17  HN  UNL     1       5.758  -1.473   2.058  1.00  0.00     0.188 HD
ENDBRANCH   9  11
ENDBRANCH   7   9
ENDBRANCH   1   7
BRANCH   4  18
HETATM   18  C   UNL     1       2.802   5.085  -0.073  1.00  0.00     0.129 C 
BRANCH  18  19
HETATM   19  C   UNL     1       3.211   6.260   0.810  1.00  0.00     0.003 C 
HETATM   20  C   UNL     1       2.439   6.359   2.129  1.00  0.00     0.006 C 
HETATM   21  C   UNL     1       2.290   7.854   2.425  1.00  0.00     0.000 C 
HETATM   22  C   UNL     1       2.978   8.589   1.282  1.00  0.00     0.000 C 
HETATM   23  C   UNL     1       2.944   7.602   0.129  1.00  0.00     0.006 C 
ENDBRANCH  18  19
ENDBRANCH   4  18
TORSDOF 5
