REMARK  5 active torsions:
REMARK  status: ('A' for Active; 'I' for Inactive)
REMARK    1  A    between atoms: O_2  and  C_3 
REMARK    2  A    between atoms: C_8  and  N_9 
REMARK       I    between atoms: N_9  and  C_10 
REMARK       I    between atoms: C_10  and  N_12 
REMARK    3  A    between atoms: N_12  and  C_13 
REMARK    4  A    between atoms: C_13  and  C_14 
REMARK    5  A    between atoms: C_14  and  C_19 
REMARK       I    between atoms: C_19  and  N_21 
ROOT
HETATM    1  N   UNL     1       3.699  -1.249   5.055  1.00  0.00    -0.295 N 
HETATM    2  C   UNL     1       4.973  -1.137   4.578  1.00  0.00     0.321 C 
HETATM    3  O   UNL     1       5.180  -1.161   3.366  1.00  0.00    -0.247 OA
HETATM    4  N   UNL     1       5.960  -1.076   5.507  1.00  0.00    -0.342 N 
HETATM    5  H   UNL     1       3.021  -1.431   4.329  1.00  0.00     0.172 HD
HETATM    6  H   UNL     1       5.646  -0.860   6.451  1.00  0.00     0.164 HD
ENDROOT
BRANCH   1   7
HETATM    7  C   UNL     1       3.274  -1.232   6.391  1.00  0.00     0.113 A 
HETATM    8  C   UNL     1       2.002  -1.676   6.673  1.00  0.00     0.066 A 
HETATM    9  C   UNL     1       1.654  -1.689   8.004  1.00  0.00     0.095 A 
HETATM   10  N   UNL     1       2.457  -1.248   8.988  1.00  0.00    -0.332 N 
HETATM   11  C   UNL     1       3.659  -0.802   8.598  1.00  0.00     0.224 A 
ATOM     12  HN  UNL     1       2.170  -1.253   9.967  1.00  0.00     0.168 HD
HETATM   13  N   UNL     1       4.117  -0.798   7.344  1.00  0.00    -0.308 N 
ATOM     14  HN  UNL     1       5.060  -0.481   7.120  1.00  0.00     0.171 HD
BRANCH  11  15
HETATM   15  O   UNL     1       4.552  -0.322   9.531  1.00  0.00    -0.327 OA
HETATM   16  C   UNL     1       3.906   0.133  10.712  1.00  0.00     0.213 C 
ENDBRANCH  11  15
ENDBRANCH   1   7
BRANCH   4  17
HETATM   17  C   UNL     1       7.370  -1.024   5.185  1.00  0.00     0.143 C 
BRANCH  17  18
HETATM   18  C   UNL     1       8.303  -0.964   6.418  1.00  0.00     0.057 C 
HETATM   19  C   UNL     1       8.069  -2.247   7.283  1.00  0.00     0.021 C 
HETATM   20  C   UNL     1       7.927  -1.817   8.739  1.00  0.00     0.001 C 
HETATM   21  C   UNL     1       8.278  -0.347   8.791  1.00  0.00     0.001 C 
HETATM   22  C   UNL     1       8.002   0.194   7.396  1.00  0.00     0.021 C 
BRANCH  18  23
HETATM   23  C   UNL     1       9.777  -0.916   5.915  1.00  0.00     0.229 C 
HETATM   24  O   UNL     1      10.567  -1.803   6.261  1.00  0.00    -0.272 OA
HETATM   25  N   UNL     1      10.223   0.100   5.064  1.00  0.00    -0.360 N 
HETATM   26  C   UNL     1       9.477   1.256   4.591  1.00  0.00     0.152 C 
HETATM   27  C   UNL     1      11.523  -0.073   4.427  1.00  0.00     0.152 C 
ENDBRANCH  18  23
ENDBRANCH  17  18
ENDBRANCH   4  17
TORSDOF 5
