REMARK  5 active torsions:
REMARK  status: ('A' for Active; 'I' for Inactive)
REMARK    1  A    between atoms: S_2  and  C_3 
REMARK    2  A    between atoms: C_8  and  N_9 
REMARK    3  A    between atoms: N_9  and  S_10 
REMARK    4  A    between atoms: S_10  and  C_13 
REMARK    5  A    between atoms: C_13  and  C_14 
ROOT
HETATM    1  N   UNL     1       2.021  -2.173   1.890  1.00  0.00    -0.313 N 
HETATM    2  H   UNL     1       1.522  -2.028   1.005  1.00  0.00     0.172 HD
ENDROOT
BRANCH   1   3
HETATM    3  C   UNL     1       3.438  -1.726   1.849  1.00  0.00     0.106 C 
HETATM    4  C   UNL     1       3.542  -0.219   1.451  1.00  0.00     0.070 C 
HETATM    5  C   UNL     1       5.018   0.194   1.583  1.00  0.00     0.017 C 
HETATM    6  C   UNL     1       5.958  -0.670   0.740  1.00  0.00     0.001 C 
HETATM    7  C   UNL     1       5.780  -2.155   1.031  1.00  0.00     0.002 C 
HETATM    8  C   UNL     1       4.323  -2.601   0.957  1.00  0.00     0.027 C 
BRANCH   4   9
HETATM    9  S   UNL     1       2.845   0.110  -0.237  1.00  0.00    -0.167 SA
HETATM   10  C   UNL     1       3.183   1.886  -0.414  1.00  0.00     0.090 C 
ENDBRANCH   4   9
ENDBRANCH   1   3
BRANCH   1  11
HETATM   11  S   UNL     1       1.600  -3.663   2.571  1.00  0.00     0.232 S 
HETATM   12  O   UNL     1       0.150  -3.687   2.568  1.00  0.00    -0.206 OA
HETATM   13  O   UNL     1       2.338  -4.690   1.875  1.00  0.00    -0.206 OA
BRANCH  11  14
HETATM   14  C   UNL     1       2.162  -3.538   4.281  1.00  0.00     0.222 C 
BRANCH  14  15
HETATM   15  C   UNL     1       2.090  -4.843   4.984  1.00  0.00     0.050 A 
HETATM   16  C   UNL     1       0.974  -5.689   5.193  1.00  0.00     0.054 A 
HETATM   17  C   UNL     1       1.488  -6.761   5.875  1.00  0.00     0.169 A 
HETATM   18  O   UNL     1       2.809  -6.563   6.102  1.00  0.00    -0.250 OA
HETATM   19  N   UNL     1       3.190  -5.349   5.560  1.00  0.00    -0.265 N 
ATOM     20  HN  UNL     1       4.117  -4.926   5.592  1.00  0.00     0.194 HD
ENDBRANCH  14  15
ENDBRANCH  11  14
ENDBRANCH   1  11
TORSDOF 5
