REMARK  7 active torsions:
REMARK  status: ('A' for Active; 'I' for Inactive)
REMARK    1  A    between atoms: N_1  and  C_3 
REMARK    2  A    between atoms: N_4  and  C_15 
REMARK    3  A    between atoms: C_8  and  C_14 
REMARK       I    between atoms: C_14  and  N_24 
REMARK    4  A    between atoms: C_15  and  C_18 
REMARK    5  A    between atoms: C_18  and  C_23 
REMARK    6  A    between atoms: C_18  and  C_26 
REMARK    7  A    between atoms: C_26  and  O_28 
ROOT
HETATM    1  C   UNL     1      -2.726  -1.652  -1.415  1.00  0.00     0.122 A 
HETATM    2  C   UNL     1      -1.487  -1.837  -0.745  1.00  0.00     0.136 A 
HETATM    3  N   UNL     1      -4.459  -2.316  -2.574  1.00  0.00    -0.327 N 
HETATM    4  C   UNL     1      -3.277  -2.758  -2.049  1.00  0.00     0.140 A 
HETATM    5  N   UNL     1      -3.550  -0.546  -1.586  1.00  0.00    -0.346 N 
ATOM      6  HN  UNL     1      -3.409   0.395  -1.219  1.00  0.00     0.167 HD
HETATM    7  C   UNL     1      -4.552  -0.975  -2.323  1.00  0.00     0.185 A 
HETATM    8  N   UNL     1      -0.936  -3.084  -0.834  1.00  0.00    -0.337 N 
ATOM      9  HN  UNL     1      -0.032  -3.274  -0.401  1.00  0.00     0.168 HD
HETATM   10  N   UNL     1      -2.768  -3.996  -2.129  1.00  0.00    -0.336 N 
ATOM     11  HN  UNL     1      -3.217  -4.778  -2.606  1.00  0.00     0.168 HD
HETATM   12  C   UNL     1      -1.587  -4.065  -1.495  1.00  0.00     0.183 A 
ENDROOT
BRANCH   2  13
HETATM   13  N   UNL     1      -0.811  -0.837  -0.062  1.00  0.00    -0.349 N 
HETATM   14  C   UNL     1      -1.583   0.205   0.645  1.00  0.00     0.174 C 
HETATM   15  C   UNL     1      -0.872   0.414   1.993  1.00  0.00     0.073 C 
HETATM   16  C   UNL     1       0.098  -0.741   2.116  1.00  0.00     0.190 C 
HETATM   17  C   UNL     1       0.405  -1.159   0.685  1.00  0.00     0.162 C 
HETATM   18  F   UNL     1      -0.527  -1.762   2.768  1.00  0.00    -0.248 F 
BRANCH  14  19
HETATM   19  C   UNL     1      -1.533   1.524  -0.150  1.00  0.00     0.218 C 
HETATM   20  O   UNL     1      -0.516   2.191  -0.323  1.00  0.00    -0.278 OA
HETATM   21  N   UNL     1      -2.728   1.944  -0.665  1.00  0.00    -0.271 NA
HETATM   22  H   UNL     1      -2.649   2.723  -1.304  1.00  0.00     0.127 HD
HETATM   23  H   UNL     1      -3.358   1.199  -0.964  1.00  0.00     0.127 HD
ENDBRANCH  14  19
ENDBRANCH   2  13
BRANCH   3  24
HETATM   24  C   UNL     1      -5.410  -3.099  -3.334  1.00  0.00     0.138 C 
BRANCH  24  25
HETATM   25  C   UNL     1      -6.079  -4.269  -2.570  1.00  0.00     0.034 C 
BRANCH  25  26
HETATM   26  C   UNL     1      -6.795  -3.803  -1.275  1.00  0.00     0.019 C 
HETATM   27  C   UNL     1      -7.448  -4.931  -0.466  1.00  0.00     0.172 C 
HETATM   28  O   UNL     1      -8.810  -4.549  -0.235  1.00  0.00    -0.391 OA
HETATM   29  C   UNL     1      -8.871  -3.126  -0.339  1.00  0.00     0.168 C 
HETATM   30  C   UNL     1      -7.916  -2.789  -1.461  1.00  0.00     0.033 C 
ENDBRANCH  25  26
BRANCH  25  31
HETATM   31  C   UNL     1      -6.999  -5.033  -3.545  1.00  0.00     0.170 C 
BRANCH  31  32
HETATM   32  O   UNL     1      -6.234  -5.766  -4.495  1.00  0.00    -0.400 OA
HETATM   33  H   UNL     1      -5.731  -5.155  -5.057  1.00  0.00     0.209 HD
ENDBRANCH  31  32
ENDBRANCH  25  31
ENDBRANCH  24  25
ENDBRANCH   3  24
TORSDOF 7
