REMARK  4 active torsions:
REMARK  status: ('A' for Active; 'I' for Inactive)
REMARK       I    between atoms: C_2  and  N_3 
REMARK       I    between atoms: C_2  and  N_11 
REMARK    1  A    between atoms: N_3  and  C_4 
REMARK    2  A    between atoms: C_4  and  C_5 
REMARK    3  A    between atoms: C_4  and  C_8 
REMARK    4  A    between atoms: N_11  and  C_12 
ROOT
HETATM    1  O   UNL     1       2.068  -0.540  -2.042  1.00  0.00    -0.247 OA
HETATM    2  C   UNL     1       2.784  -0.235  -1.097  1.00  0.00     0.321 C 
HETATM    3  N   UNL     1       3.029   1.070  -0.745  1.00  0.00    -0.338 N 
HETATM    4  N   UNL     1       3.458  -1.109  -0.272  1.00  0.00    -0.308 N 
HETATM    5  H   UNL     1       3.421   1.262   0.162  1.00  0.00     0.164 HD
HETATM    6  H   UNL     1       4.182  -0.706   0.303  1.00  0.00     0.170 HD
ENDROOT
BRANCH   3   7
HETATM    7  C   UNL     1       2.409   2.180  -1.442  1.00  0.00     0.094 C 
BRANCH   7   8
HETATM    8  C   UNL     1       1.565   2.936  -0.444  1.00  0.00     0.009 A 
HETATM    9  C   UNL     1       0.386   2.239   0.203  1.00  0.00     0.007 A 
HETATM   10  C   UNL     1       0.149   3.358  -0.768  1.00  0.00     0.007 A 
ENDBRANCH   7   8
BRANCH   7  11
HETATM   11  C   UNL     1       3.523   3.011  -2.026  1.00  0.00     0.009 A 
HETATM   12  C   UNL     1       3.284   4.250  -2.854  1.00  0.00     0.007 A 
HETATM   13  C   UNL     1       3.743   2.986  -3.522  1.00  0.00     0.007 A 
ENDBRANCH   7  11
ENDBRANCH   3   7
BRANCH   4  14
HETATM   14  C   UNL     1       3.376  -2.517  -0.301  1.00  0.00     0.051 A 
HETATM   15  C   UNL     1       2.406  -3.225  -1.005  1.00  0.00     0.032 A 
HETATM   16  C   UNL     1       2.404  -4.619  -0.976  1.00  0.00     0.019 A 
HETATM   17  C   UNL     1       3.374  -5.266  -0.230  1.00  0.00     0.088 A 
HETATM   18  N   UNL     1       4.324  -4.622   0.478  1.00  0.00    -0.373 N 
HETATM   19  C   UNL     1       4.298  -3.268   0.427  1.00  0.00     0.117 A 
ATOM     20  HN  UNL     1       5.024  -5.126   1.022  1.00  0.00     0.164 HD
ENDBRANCH   4  14
TORSDOF 4
