REMARK  5 active torsions:
REMARK  status: ('A' for Active; 'I' for Inactive)
REMARK    1  A    between atoms: C_2  and  N_3 
REMARK    2  A    between atoms: C_2  and  C_18 
REMARK       I    between atoms: N_3  and  C_4 
REMARK    3  A    between atoms: C_4  and  C_6 
REMARK    4  A    between atoms: C_6  and  N_7 
REMARK    5  A    between atoms: C_9  and  C_14 
ROOT
HETATM    1  N   UNL     1       3.849   4.440  -0.336  1.00  0.00    -0.315 N 
HETATM    2  C   UNL     1       3.284   5.381  -1.186  1.00  0.00     0.110 A 
HETATM    3  C   UNL     1       4.035   6.127  -2.020  1.00  0.00     0.063 A 
HETATM    4  C   UNL     1       5.475   5.928  -2.017  1.00  0.00     0.023 A 
HETATM    5  C   UNL     1       6.046   5.010  -1.228  1.00  0.00     0.075 A 
HETATM    6  C   UNL     1       5.214   4.175  -0.321  1.00  0.00     0.247 A 
HETATM    7  O   UNL     1       5.748   3.327   0.388  1.00  0.00    -0.268 OA
ENDROOT
BRANCH   1   8
HETATM    8  C   UNL     1       3.000   3.661   0.566  1.00  0.00     0.234 C 
BRANCH   8   9
HETATM    9  C   UNL     1       2.488   2.376  -0.091  1.00  0.00     0.236 C 
HETATM   10  N   UNL     1       2.818   1.206   0.566  1.00  0.00    -0.355 N 
HETATM   11  H   UNL     1       3.498   1.229   1.316  1.00  0.00     0.162 HD
HETATM   12  O   UNL     1       1.817   2.400  -1.123  1.00  0.00    -0.272 OA
BRANCH  10  13
HETATM   13  C   UNL     1       2.375  -0.089   0.075  1.00  0.00     0.084 C 
HETATM   14  C   UNL     1       1.022  -0.465   0.681  1.00  0.00     0.032 C 
BRANCH  13  15
HETATM   15  C   UNL     1       3.410  -1.138   0.399  1.00  0.00     0.008 A 
HETATM   16  C   UNL     1       4.837  -1.007  -0.075  1.00  0.00     0.007 A 
HETATM   17  C   UNL     1       3.932  -2.022  -0.710  1.00  0.00     0.007 A 
ENDBRANCH  13  15
ENDBRANCH  10  13
ENDBRANCH   8   9
ENDBRANCH   1   8
BRANCH   3  18
HETATM   18  C   UNL     1       3.432   7.156  -2.935  1.00  0.00     0.418 C 
HETATM   19  F   UNL     1       4.355   7.778  -3.715  1.00  0.00    -0.166 F 
HETATM   20  F   UNL     1       2.517   6.610  -3.776  1.00  0.00    -0.166 F 
HETATM   21  F   UNL     1       2.793   8.131  -2.239  1.00  0.00    -0.166 F 
ENDBRANCH   3  18
TORSDOF 5
