REMARK  4 active torsions:
REMARK  status: ('A' for Active; 'I' for Inactive)
REMARK    1  A    between atoms: O_1  and  C_2 
REMARK    2  A    between atoms: C_2  and  C_3 
REMARK    3  A    between atoms: C_2  and  C_14 
REMARK    4  A    between atoms: C_3  and  N_4 
ROOT
HETATM    1  C   UNL     1       2.929  -0.886   0.996  1.00  0.00     0.166 C 
ENDROOT
BRANCH   1   2
HETATM    2  C   UNL     1       2.366   0.010  -0.123  1.00  0.00     0.169 C 
BRANCH   2   3
HETATM    3  O   UNL     1       2.841   1.354  -0.014  1.00  0.00    -0.389 OA
HETATM    4  H   UNL     1       3.785   1.359  -0.247  1.00  0.00     0.210 HD
ENDBRANCH   2   3
BRANCH   2   5
HETATM    5  C   UNL     1       0.856  -0.007  -0.238  1.00  0.00    -0.028 A 
HETATM    6  C   UNL     1       0.225  -0.994  -1.016  1.00  0.00     0.013 A 
HETATM    7  C   UNL     1      -1.163  -1.000  -1.167  1.00  0.00     0.043 A 
HETATM    8  C   UNL     1      -1.926  -0.027  -0.534  1.00  0.00     0.116 A 
HETATM    9  F   UNL     1      -3.256  -0.024  -0.696  1.00  0.00    -0.206 F 
HETATM   10  C   UNL     1      -1.330   0.944   0.258  1.00  0.00     0.043 A 
HETATM   11  C   UNL     1       0.059   0.953   0.409  1.00  0.00     0.013 A 
ENDBRANCH   2   5
ENDBRANCH   1   2
BRANCH   1  12
HETATM   12  N   UNL     1       2.529  -0.539   2.346  1.00  0.00    -0.338 N 
HETATM   13  C   UNL     1       2.816   0.644   2.972  1.00  0.00     0.184 A 
HETATM   14  N   UNL     1       2.410   0.650   4.220  1.00  0.00    -0.350 N 
HETATM   15  C   UNL     1       1.857  -0.587   4.422  1.00  0.00     0.060 A 
ATOM     16  HN  UNL     1       2.489   1.411   4.894  1.00  0.00     0.166 HD
HETATM   17  C   UNL     1       1.289  -1.123   5.587  1.00  0.00     0.032 A 
HETATM   18  C   UNL     1       1.922  -1.365   3.266  1.00  0.00     0.062 A 
HETATM   19  C   UNL     1       0.808  -2.435   5.562  1.00  0.00     0.002 A 
HETATM   20  C   UNL     1       0.886  -3.199   4.397  1.00  0.00     0.002 A 
HETATM   21  C   UNL     1       1.441  -2.681   3.220  1.00  0.00     0.032 A 
ENDBRANCH   1  12
TORSDOF 4
