REMARK  6 active torsions:
REMARK  status: ('A' for Active; 'I' for Inactive)
REMARK    1  A    between atoms: C_2  and  N_3 
REMARK    2  A    between atoms: N_3  and  C_4 
REMARK    3  A    between atoms: N_8  and  C_9 
REMARK    4  A    between atoms: C_9  and  C_10 
REMARK    5  A    between atoms: C_10  and  O_11 
REMARK    6  A    between atoms: O_11  and  C_12 
ROOT
HETATM    1  C   UNL     1       4.286   1.309  -1.158  1.00  0.00     0.052 A 
HETATM    2  C   UNL     1       5.295   0.222  -1.166  1.00  0.00     0.132 A 
HETATM    3  N   UNL     1       6.574   0.355  -1.294  1.00  0.00    -0.305 N 
ATOM      4  HN  UNL     1       7.194  -0.455  -1.293  1.00  0.00     0.186 HD
HETATM    5  N   UNL     1       7.067   1.633  -1.432  1.00  0.00    -0.254 N 
HETATM    6  C   UNL     1       6.267   2.775  -1.423  1.00  0.00     0.285 A 
HETATM    7  O   UNL     1       6.723   3.912  -1.519  1.00  0.00    -0.265 OA
HETATM    8  C   UNL     1       4.802   2.537  -1.299  1.00  0.00     0.126 A 
HETATM    9 CL   UNL     1       3.770   3.929  -1.308  1.00  0.00    -0.076 Cl
ENDROOT
BRANCH   5  10
HETATM   10  C   UNL     1       8.512   1.796  -1.608  1.00  0.00     0.179 C 
BRANCH  10  11
HETATM   11  C   UNL     1       9.310   0.494  -1.607  1.00  0.00     0.197 C 
BRANCH  11  12
HETATM   12  O   UNL     1      10.701   0.786  -1.795  1.00  0.00    -0.349 OA
BRANCH  12  13
HETATM   13  C   UNL     1      11.513  -0.315  -1.892  1.00  0.00     0.068 A 
HETATM   14  C   UNL     1      12.672  -0.147  -2.653  1.00  0.00     0.038 A 
HETATM   15  C   UNL     1      13.567  -1.207  -2.822  1.00  0.00     0.026 A 
HETATM   16  C   UNL     1      13.311  -2.431  -2.208  1.00  0.00     0.034 A 
HETATM   17 CL   UNL     1      14.406  -3.742  -2.413  1.00  0.00    -0.084 Cl
HETATM   18  C   UNL     1      12.174  -2.598  -1.422  1.00  0.00     0.026 A 
HETATM   19  C   UNL     1      11.275  -1.539  -1.262  1.00  0.00     0.038 A 
ENDBRANCH  12  13
ENDBRANCH  11  12
ENDBRANCH  10  11
ENDBRANCH   5  10
BRANCH   1  20
HETATM   20  N   UNL     1       2.935   0.955  -1.073  1.00  0.00    -0.291 NA
HETATM   21  H   UNL     1       2.389   1.681  -1.548  1.00  0.00     0.127 HD
BRANCH  20  22
HETATM   22  C   UNL     1       2.325   0.756   0.249  1.00  0.00     0.088 C 
HETATM   23  C   UNL     1       0.862   0.383   0.081  1.00  0.00     0.021 C 
ENDBRANCH  20  22
ENDBRANCH   1  20
TORSDOF 6
