REMARK  5 active torsions:
REMARK  status: ('A' for Active; 'I' for Inactive)
REMARK    1  A    between atoms: S_2  and  N_5 
REMARK    2  A    between atoms: N_8  and  C_11 
REMARK    3  A    between atoms: C_14  and  N_15 
REMARK       I    between atoms: N_15  and  C_16 
REMARK       I    between atoms: C_16  and  N_18 
REMARK    4  A    between atoms: N_18  and  C_19 
REMARK    5  A    between atoms: C_19  and  C_20 
ROOT
HETATM    1  C   UNL     1       3.566  -4.976   0.834  1.00  0.00     0.103 A 
HETATM    2  C   UNL     1       4.715  -5.494   1.437  1.00  0.00     0.051 A 
HETATM    3  C   UNL     1       4.849  -6.868   1.677  1.00  0.00     0.035 A 
HETATM    4  C   UNL     1       3.833  -7.717   1.285  1.00  0.00     0.051 A 
HETATM    5  C   UNL     1       2.716  -7.139   0.706  1.00  0.00     0.119 A 
HETATM    6  N   UNL     1       2.565  -5.815   0.489  1.00  0.00    -0.350 N 
ATOM      7  HN  UNL     1       1.708  -5.454   0.071  1.00  0.00     0.166 HD
ENDROOT
BRANCH   1   8
HETATM    8  N   UNL     1       3.425  -3.652   0.487  1.00  0.00    -0.365 N 
HETATM    9  C   UNL     1       2.118  -3.173   0.003  1.00  0.00     0.140 C 
HETATM   10  C   UNL     1       2.309  -2.167  -1.154  1.00  0.00     0.127 C 
HETATM   11  N   UNL     1       3.291  -1.071  -0.843  1.00  0.00    -0.208 NA
HETATM   12  C   UNL     1       4.578  -1.665  -0.340  1.00  0.00     0.127 C 
HETATM   13  C   UNL     1       4.350  -2.584   0.875  1.00  0.00     0.140 C 
BRANCH  11  14
HETATM   14  S   UNL     1       2.731   0.244   0.064  1.00  0.00     0.207 S 
HETATM   15  C   UNL     1       1.643   1.070  -1.074  1.00  0.00     0.180 C 
HETATM   16  O   UNL     1       3.848   1.121   0.311  1.00  0.00    -0.212 OA
HETATM   17  O   UNL     1       1.940  -0.265   1.165  1.00  0.00    -0.212 OA
ENDBRANCH  11  14
ENDBRANCH   1   8
BRANCH   4  18
HETATM   18  N   UNL     1       3.907  -9.114   1.361  1.00  0.00    -0.308 N 
HETATM   19  C   UNL     1       4.553  -9.837   2.328  1.00  0.00     0.321 C 
HETATM   20  O   UNL     1       5.046  -9.385   3.355  1.00  0.00    -0.247 OA
HETATM   21  N   UNL     1       4.595 -11.188   2.085  1.00  0.00    -0.339 N 
HETATM   22  H   UNL     1       5.107 -11.700   2.793  1.00  0.00     0.164 HD
HETATM   23  H   UNL     1       3.205  -9.620   0.849  1.00  0.00     0.170 HD
BRANCH  21  24
HETATM   24  C   UNL     1       4.351 -11.799   0.803  1.00  0.00     0.150 C 
BRANCH  24  25
HETATM   25  C   UNL     1       4.669 -13.252   0.847  1.00  0.00    -0.018 C 
HETATM   26  C   UNL     1       5.568 -13.831   0.040  1.00  0.00     0.008 C 
ENDBRANCH  24  25
ENDBRANCH  21  24
ENDBRANCH   4  18
TORSDOF 5
