REMARK  4 active torsions:
REMARK  status: ('A' for Active; 'I' for Inactive)
REMARK    1  A    between atoms: C_2  and  C_5 
REMARK    2  A    between atoms: C_10  and  N_11 
REMARK       I    between atoms: N_11  and  C_12 
REMARK       I    between atoms: C_12  and  N_14 
REMARK    3  A    between atoms: N_14  and  C_15 
REMARK    4  A    between atoms: C_15  and  C_16 
ROOT
HETATM    1  N   UNL     1       1.549  -4.636  -0.333  1.00  0.00    -0.304 N 
HETATM    2  C   UNL     1       0.359  -4.513  -1.008  1.00  0.00     0.320 C 
HETATM    3  O   UNL     1      -0.225  -3.457  -1.233  1.00  0.00    -0.247 OA
HETATM    4  N   UNL     1      -0.165  -5.701  -1.454  1.00  0.00    -0.342 N 
HETATM    5  H   UNL     1       1.982  -5.549  -0.257  1.00  0.00     0.171 HD
HETATM    6  H   UNL     1       0.098  -6.539  -0.953  1.00  0.00     0.164 HD
ENDROOT
BRANCH   1   7
HETATM    7  C   UNL     1       2.298  -3.581   0.167  1.00  0.00     0.105 A 
HETATM    8  C   UNL     1       3.624  -3.899   0.811  1.00  0.00     0.272 A 
HETATM    9  N   UNL     1       4.353  -2.820   1.270  1.00  0.00    -0.331 N 
HETATM   10  O   UNL     1       4.018  -5.057   0.922  1.00  0.00    -0.266 OA
HETATM   11  C   UNL     1       3.961  -1.512   1.134  1.00  0.00     0.107 A 
HETATM   12  H   UNL     1       5.243  -3.039   1.702  1.00  0.00     0.168 HD
HETATM   13  C   UNL     1       2.786  -1.203   0.560  1.00  0.00     0.065 A 
HETATM   14  C   UNL     1       1.938  -2.287   0.113  1.00  0.00     0.052 A 
BRANCH  13  15
HETATM   15  C   UNL     1       2.320   0.205   0.301  1.00  0.00     0.418 C 
HETATM   16  F   UNL     1       1.121   0.271  -0.335  1.00  0.00    -0.166 F 
HETATM   17  F   UNL     1       3.205   0.881  -0.476  1.00  0.00    -0.166 F 
HETATM   18  F   UNL     1       2.187   0.910   1.452  1.00  0.00    -0.166 F 
ENDBRANCH  13  15
ENDBRANCH   1   7
BRANCH   4  19
HETATM   19  C   UNL     1      -1.491  -5.620  -2.054  1.00  0.00     0.129 C 
BRANCH  19  20
HETATM   20  C   UNL     1      -2.067  -6.951  -2.544  1.00  0.00     0.007 C 
HETATM   21  C   UNL     1      -2.296  -7.909  -1.362  1.00  0.00     0.010 C 
HETATM   22  C   UNL     1      -1.973  -9.387  -1.559  1.00  0.00     0.027 C 
HETATM   23  C   UNL     1      -1.434  -9.788  -2.888  1.00  0.00    -0.031 C 
HETATM   24  C   UNL     1      -1.133  -8.935  -3.870  1.00  0.00    -0.030 C 
HETATM   25  C   UNL     1      -1.285  -7.459  -3.763  1.00  0.00     0.033 C 
ENDBRANCH  19  20
ENDBRANCH   4  19
TORSDOF 4
