REMARK  4 active torsions:
REMARK  status: ('A' for Active; 'I' for Inactive)
REMARK    1  A    between atoms: C_2  and  C_3 
REMARK    2  A    between atoms: C_2  and  N_10 
REMARK    3  A    between atoms: C_3  and  N_4 
REMARK       I    between atoms: N_10  and  C_11 
REMARK    4  A    between atoms: C_11  and  C_13 
ROOT
HETATM    1  N   UNL     1       3.064   1.453   0.294  1.00  0.00    -0.350 N 
HETATM    2  C   UNL     1       4.427   1.633   0.385  1.00  0.00     0.265 C 
HETATM    3  O   UNL     1       5.251   0.735   0.304  1.00  0.00    -0.266 OA
HETATM    4  H   UNL     1       2.485   2.290   0.301  1.00  0.00     0.163 HD
ENDROOT
BRANCH   1   5
HETATM    5  C   UNL     1       2.483   0.127   0.079  1.00  0.00     0.099 C 
HETATM    6  C   UNL     1       1.062   0.084   0.636  1.00  0.00     0.034 C 
BRANCH   5   7
HETATM    7  C   UNL     1       2.543  -0.280  -1.408  1.00  0.00     0.153 C 
BRANCH   7   8
HETATM    8  N   UNL     1       2.077  -1.627  -1.675  1.00  0.00    -0.350 N 
HETATM    9  C   UNL     1       1.027  -1.979  -2.475  1.00  0.00     0.108 A 
HETATM   10  C   UNL     1       0.976  -3.352  -2.412  1.00  0.00     0.106 A 
HETATM   11  N   UNL     1       1.970  -3.837  -1.603  1.00  0.00    -0.361 N 
HETATM   12  C   UNL     1       2.628  -2.778  -1.187  1.00  0.00     0.182 A 
ATOM     13  HN  UNL     1       2.159  -4.812  -1.373  1.00  0.00     0.166 HD
ENDBRANCH   7   8
ENDBRANCH   5   7
ENDBRANCH   1   5
BRANCH   2  14
HETATM   14  C   UNL     1       4.891   3.076   0.593  1.00  0.00     0.094 A 
HETATM   15  N   UNL     1       4.006   4.023   0.595  1.00  0.00    -0.295 N 
HETATM   16  N   UNL     1       4.421   5.319   0.776  1.00  0.00    -0.265 N 
ATOM     17  HN  UNL     1       3.017   3.809   0.464  1.00  0.00     0.187 HD
HETATM   18  C   UNL     1       3.388   6.341   0.755  1.00  0.00     0.181 C 
HETATM   19  C   UNL     1       5.729   5.732   0.969  1.00  0.00     0.238 A 
HETATM   20  O   UNL     1       6.040   6.916   1.122  1.00  0.00    -0.272 OA
HETATM   21  C   UNL     1       6.801   4.680   0.998  1.00  0.00     0.111 A 
HETATM   22  C   UNL     1       6.364   3.259   0.769  1.00  0.00     0.073 A 
ENDBRANCH   2  14
TORSDOF 4
