REMARK  6 active torsions:
REMARK  status: ('A' for Active; 'I' for Inactive)
REMARK    1  A    between atoms: C_4  and  C_8 
REMARK    2  A    between atoms: C_8  and  O_9 
REMARK    3  A    between atoms: C_8  and  C_10 
REMARK    4  A    between atoms: C_10  and  N_11 
REMARK       I    between atoms: N_11  and  C_12 
REMARK    5  A    between atoms: C_12  and  C_14 
REMARK    6  A    between atoms: C_14  and  C_15 
ROOT
HETATM    1  C   UNL     1       5.573   2.942  -0.022  1.00  0.00     0.159 C 
ENDROOT
BRANCH   1   2
HETATM    2  C   UNL     1       4.657   3.057  -1.265  1.00  0.00     0.171 C 
BRANCH   2   3
HETATM    3  C   UNL     1       5.396   2.800  -2.540  1.00  0.00     0.006 A 
HETATM    4  C   UNL     1       6.011   1.641  -2.976  1.00  0.00     0.120 A 
HETATM    5  N   UNL     1       6.558   1.931  -4.191  1.00  0.00    -0.307 N 
HETATM    6  C   UNL     1       7.305   1.038  -5.042  1.00  0.00     0.177 C 
HETATM    7  N   UNL     1       6.359   3.202  -4.576  1.00  0.00    -0.310 N 
HETATM    8  C   UNL     1       5.640   3.725  -3.581  1.00  0.00     0.118 A 
ATOM      9  HN  UNL     1       6.682   3.660  -5.428  1.00  0.00     0.186 HD
ENDBRANCH   2   3
BRANCH   2  10
HETATM   10  O   UNL     1       3.556   2.151  -1.119  1.00  0.00    -0.389 OA
HETATM   11  H   UNL     1       3.885   1.262  -1.328  1.00  0.00     0.210 HD
ENDBRANCH   2  10
ENDBRANCH   1   2
BRANCH   1  12
HETATM   12  N   UNL     1       6.705   3.855   0.001  1.00  0.00    -0.358 N 
HETATM   13  C   UNL     1       6.509   5.213   0.052  1.00  0.00     0.217 C 
HETATM   14  O   UNL     1       5.395   5.727   0.096  1.00  0.00    -0.274 OA
HETATM   15  H   UNL     1       7.629   3.491  -0.200  1.00  0.00     0.162 HD
BRANCH  13  16
HETATM   16  C   UNL     1       7.772   6.038   0.121  1.00  0.00     0.107 C 
BRANCH  16  17
HETATM   17  C   UNL     1       8.189   6.254   1.571  1.00  0.00    -0.006 C 
HETATM   18  C   UNL     1       7.147   6.985   2.425  1.00  0.00     0.005 C 
HETATM   19  C   UNL     1       7.935   7.626   3.566  1.00  0.00     0.000 C 
HETATM   20  C   UNL     1       9.410   7.482   3.197  1.00  0.00     0.000 C 
HETATM   21  C   UNL     1       9.411   7.157   1.710  1.00  0.00     0.005 C 
ENDBRANCH  16  17
ENDBRANCH  13  16
ENDBRANCH   1  12
TORSDOF 6
