REMARK  6 active torsions:
REMARK  status: ('A' for Active; 'I' for Inactive)
REMARK    1  A    between atoms: N_1  and  C_5 
REMARK    2  A    between atoms: N_3  and  C_14 
REMARK    3  A    between atoms: N_4  and  C_20 
REMARK    4  A    between atoms: C_12  and  C_14 
REMARK    5  A    between atoms: C_12  and  O_29 
REMARK    6  A    between atoms: C_15  and  C_20 
ROOT
HETATM    1  C   UNL     1      -2.809  -1.671  -1.377  1.00  0.00     0.122 A 
HETATM    2  N   UNL     1      -4.547  -2.392  -2.493  1.00  0.00    -0.324 N 
HETATM    3  C   UNL     1      -1.589  -1.828  -0.676  1.00  0.00     0.137 A 
HETATM    4  C   UNL     1      -3.475  -2.826  -1.761  1.00  0.00     0.140 A 
HETATM    5  N   UNL     1      -3.500  -0.552  -1.814  1.00  0.00    -0.346 N 
ATOM      6  HN  UNL     1      -3.259   0.427  -1.658  1.00  0.00     0.167 HD
HETATM    7  C   UNL     1      -4.534  -1.026  -2.473  1.00  0.00     0.185 A 
HETATM    8  N   UNL     1      -3.122  -4.099  -1.513  1.00  0.00    -0.336 N 
ATOM      9  HN  UNL     1      -3.650  -4.918  -1.813  1.00  0.00     0.168 HD
HETATM   10  N   UNL     1      -1.197  -3.109  -0.409  1.00  0.00    -0.337 N 
ATOM     11  HN  UNL     1      -0.326  -3.286   0.091  1.00  0.00     0.168 HD
HETATM   12  C   UNL     1      -1.972  -4.140  -0.812  1.00  0.00     0.183 A 
ENDROOT
BRANCH   3  13
HETATM   13  N   UNL     1      -0.799  -0.795  -0.246  1.00  0.00    -0.340 N 
HETATM   14  C   UNL     1      -1.093   0.599  -0.470  1.00  0.00     0.254 C 
HETATM   15  N   UNL     1      -0.069   1.247   0.308  1.00  0.00    -0.326 N 
HETATM   16  C   UNL     1       0.987   0.401   0.612  1.00  0.00     0.239 C 
HETATM   17  C   UNL     1       0.568  -1.002   0.212  1.00  0.00     0.229 C 
HETATM   18  O   UNL     1       2.051   0.739   1.109  1.00  0.00    -0.271 OA
BRANCH  15  19
HETATM   19  C   UNL     1       0.011   2.697   0.446  1.00  0.00     0.245 C 
BRANCH  19  20
HETATM   20  C   UNL     1       0.766   3.446  -0.656  1.00  0.00     0.403 C 
HETATM   21  F   UNL     1       1.210   2.628  -1.635  1.00  0.00    -0.169 F 
HETATM   22  F   UNL     1      -0.050   4.358  -1.241  1.00  0.00    -0.169 F 
HETATM   23  F   UNL     1       1.828   4.121  -0.162  1.00  0.00    -0.169 F 
ENDBRANCH  19  20
ENDBRANCH  15  19
ENDBRANCH   3  13
BRANCH   2  24
HETATM   24  C   UNL     1      -5.403  -3.228  -3.313  1.00  0.00     0.172 C 
BRANCH  24  25
HETATM   25  C   UNL     1      -6.665  -3.754  -2.617  1.00  0.00     0.102 C 
HETATM   26  C   UNL     1      -7.533  -4.608  -3.572  1.00  0.00     0.153 C 
HETATM   27  O   UNL     1      -8.902  -4.476  -3.130  1.00  0.00    -0.383 OA
HETATM   28  C   UNL     1      -7.190  -6.087  -3.636  1.00  0.00     0.042 C 
HETATM   29  C   UNL     1      -8.943  -3.480  -2.100  1.00  0.00     0.171 C 
HETATM   30  C   UNL     1      -7.665  -2.676  -2.236  1.00  0.00     0.068 C 
BRANCH  25  31
HETATM   31  O   UNL     1      -6.338  -4.477  -1.423  1.00  0.00    -0.385 OA
HETATM   32  H   UNL     1      -5.518  -4.986  -1.565  1.00  0.00     0.210 HD
ENDBRANCH  25  31
ENDBRANCH  24  25
ENDBRANCH   2  24
TORSDOF 6
