REMARK  3 active torsions:
REMARK  status: ('A' for Active; 'I' for Inactive)
REMARK       I    between atoms: C_2  and  N_3 
REMARK       I    between atoms: C_2  and  N_10 
REMARK    1  A    between atoms: N_3  and  C_4 
REMARK    2  A    between atoms: C_4  and  C_5 
REMARK    3  A    between atoms: N_10  and  C_11 
ROOT
HETATM    1  O   UNL     1       1.206  -0.081  -0.189  1.00  0.00    -0.247 OA
HETATM    2  C   UNL     1       2.419   0.041  -0.033  1.00  0.00     0.321 C 
HETATM    3  N   UNL     1       2.994   0.372   1.152  1.00  0.00    -0.342 N 
HETATM    4  N   UNL     1       3.263  -0.188  -1.081  1.00  0.00    -0.295 N 
HETATM    5  H   UNL     1       3.981   0.616   1.089  1.00  0.00     0.164 HD
HETATM    6  H   UNL     1       2.775  -0.446  -1.926  1.00  0.00     0.172 HD
ENDROOT
BRANCH   3   7
HETATM    7  C   UNL     1       2.261   0.673   2.357  1.00  0.00     0.131 C 
BRANCH   7   8
HETATM    8  C   UNL     1       3.097   0.381   3.595  1.00  0.00     0.029 C 
HETATM    9  C   UNL     1       3.492  -1.076   3.758  1.00  0.00     0.034 C 
HETATM   10  C   UNL     1       3.525  -1.290   5.261  1.00  0.00     0.168 C 
HETATM   11  O   UNL     1       3.030  -0.097   5.884  1.00  0.00    -0.391 OA
HETATM   12  C   UNL     1       2.350   0.662   4.881  1.00  0.00     0.173 C 
ENDBRANCH   7   8
ENDBRANCH   3   7
BRANCH   4  13
HETATM   13  C   UNL     1       4.661  -0.197  -1.091  1.00  0.00     0.108 A 
HETATM   14  C   UNL     1       5.300  -0.554  -2.272  1.00  0.00     0.049 A 
HETATM   15  C   UNL     1       6.692  -0.638  -2.285  1.00  0.00     0.005 A 
HETATM   16  C   UNL     1       7.405  -0.359  -1.126  1.00  0.00     0.017 A 
HETATM   17  C   UNL     1       6.692   0.015  -0.003  1.00  0.00     0.089 A 
HETATM   18  N   UNL     1       5.346   0.109   0.035  1.00  0.00    -0.352 N 
ATOM     19  HN  UNL     1       4.862   0.401   0.884  1.00  0.00     0.166 HD
ENDBRANCH   4  13
TORSDOF 3
