REMARK  3 active torsions:
REMARK  status: ('A' for Active; 'I' for Inactive)
REMARK    1  A    between atoms: O_1  and  C_2 
REMARK    2  A    between atoms: C_5  and  N_8 
REMARK       I    between atoms: N_8  and  C_9 
REMARK       I    between atoms: C_9  and  N_11 
REMARK    3  A    between atoms: N_11  and  C_12 
ROOT
HETATM    1  N   UNL     1       4.594  -0.786  -2.903  1.00  0.00    -0.338 N 
HETATM    2  C   UNL     1       5.168  -0.368  -4.093  1.00  0.00     0.322 C 
HETATM    3  O   UNL     1       4.489   0.055  -5.019  1.00  0.00    -0.247 OA
HETATM    4  N   UNL     1       6.528  -0.559  -4.082  1.00  0.00    -0.289 N 
HETATM    5  H   UNL     1       5.156  -0.662  -2.075  1.00  0.00     0.164 HD
HETATM    6  H   UNL     1       6.935  -1.162  -3.388  1.00  0.00     0.172 HD
ENDROOT
BRANCH   1   7
HETATM    7  C   UNL     1       3.139  -0.754  -2.754  1.00  0.00     0.086 C 
HETATM    8  C   UNL     1       2.635   0.648  -2.387  1.00  0.00     0.028 C 
HETATM    9  C   UNL     1       2.981   1.033  -0.947  1.00  0.00     0.034 C 
HETATM   10  C   UNL     1       2.506  -0.017   0.056  1.00  0.00     0.118 C 
HETATM   11  C   UNL     1       3.014  -1.415  -0.298  1.00  0.00     0.034 C 
HETATM   12  C   UNL     1       2.678  -1.801  -1.738  1.00  0.00     0.028 C 
BRANCH  10  13
HETATM   13  O   UNL     1       1.082  -0.049   0.078  1.00  0.00    -0.396 OA
HETATM   14  H   UNL     1       0.769   0.843   0.306  1.00  0.00     0.210 HD
ENDBRANCH  10  13
ENDBRANCH   1   7
BRANCH   4  15
HETATM   15  C   UNL     1       7.269  -0.315  -5.205  1.00  0.00     0.152 A 
HETATM   16  N   UNL     1       6.942   0.355  -6.278  1.00  0.00    -0.346 N 
HETATM   17  C   UNL     1       7.950   0.254  -7.211  1.00  0.00     0.097 A 
ATOM     18  HN  UNL     1       6.073   0.874  -6.405  1.00  0.00     0.167 HD
HETATM   19  C   UNL     1       9.056  -0.464  -6.809  1.00  0.00     0.070 A 
HETATM   20  S   UNL     1       8.831  -1.009  -5.195  1.00  0.00    -0.064 SA
ENDBRANCH   4  15
TORSDOF 3
