REMARK  6 active torsions:
REMARK  status: ('A' for Active; 'I' for Inactive)
REMARK    1  A    between atoms: O_2  and  C_3 
REMARK    2  A    between atoms: C_3  and  C_4 
REMARK    3  A    between atoms: C_4  and  C_5 
REMARK    4  A    between atoms: C_5  and  N_6 
REMARK       I    between atoms: N_6  and  C_7 
REMARK    5  A    between atoms: C_7  and  C_9 
REMARK    6  A    between atoms: C_15  and  N_16 
ROOT
HETATM    1  C   UNL     1       8.558  -3.615  -1.726  1.00  0.00     0.075 A 
HETATM    2  C   UNL     1       9.382  -2.476  -1.592  1.00  0.00     0.022 A 
HETATM    3  C   UNL     1      10.745  -2.605  -1.386  1.00  0.00     0.018 A 
HETATM    4  C   UNL     1      11.244  -3.880  -1.279  1.00  0.00     0.089 A 
HETATM    5  N   UNL     1      10.481  -4.986  -1.393  1.00  0.00    -0.352 N 
ATOM      6  HN  UNL     1      10.914  -5.905  -1.301  1.00  0.00     0.166 HD
HETATM    7  C   UNL     1       9.136  -4.899  -1.630  1.00  0.00     0.119 A 
ENDROOT
BRANCH   1   8
HETATM    8  C   UNL     1       7.097  -3.327  -1.848  1.00  0.00     0.255 C 
HETATM    9  N   UNL     1       6.751  -2.299  -2.710  1.00  0.00    -0.357 N 
HETATM   10  H   UNL     1       7.467  -1.810  -3.231  1.00  0.00     0.162 HD
HETATM   11  O   UNL     1       6.272  -3.948  -1.192  1.00  0.00    -0.268 OA
BRANCH   9  12
HETATM   12  C   UNL     1       5.365  -2.040  -3.060  1.00  0.00     0.125 C 
BRANCH  12  13
HETATM   13  C   UNL     1       4.630  -1.194  -2.023  1.00  0.00     0.046 C 
BRANCH  13  14
HETATM   14  C   UNL     1       3.170  -0.979  -2.422  1.00  0.00     0.168 C 
BRANCH  14  15
HETATM   15  O   UNL     1       2.526  -2.246  -2.525  1.00  0.00    -0.396 OA
HETATM   16  C   UNL     1       1.172  -2.136  -2.936  1.00  0.00     0.201 C 
ENDBRANCH  14  15
ENDBRANCH  13  14
ENDBRANCH  12  13
ENDBRANCH   9  12
ENDBRANCH   1   8
BRANCH   7  17
HETATM   17  N   UNL     1       8.548  -6.130  -1.857  1.00  0.00    -0.362 N 
HETATM   18  C   UNL     1       9.035  -7.248  -1.016  1.00  0.00     0.150 C 
HETATM   19  C   UNL     1       8.816  -8.591  -1.731  1.00  0.00     0.187 C 
HETATM   20  O   UNL     1       7.443  -8.775  -2.106  1.00  0.00    -0.388 OA
HETATM   21  C   UNL     1       7.037  -7.719  -2.990  1.00  0.00     0.187 C 
HETATM   22  C   UNL     1       7.175  -6.331  -2.335  1.00  0.00     0.150 C 
ENDBRANCH   7  17
TORSDOF 6
