REMARK  8 active torsions:
REMARK  status: ('A' for Active; 'I' for Inactive)
REMARK    1  A    between atoms: O_2  and  C_3 
REMARK    2  A    between atoms: C_3  and  C_4 
REMARK    3  A    between atoms: C_4  and  N_5 
REMARK       I    between atoms: N_5  and  C_6 
REMARK    4  A    between atoms: N_5  and  C_12 
REMARK    5  A    between atoms: C_6  and  C_8 
REMARK    6  A    between atoms: C_13  and  N_14 
REMARK    7  A    between atoms: N_15  and  C_16 
REMARK    8  A    between atoms: C_16  and  C_17 
ROOT
HETATM    1  C   UNL     1       6.233  -2.305  -2.036  1.00  0.00     0.144 C 
HETATM    2  C   UNL     1       6.752  -3.543  -1.835  1.00  0.00     0.117 C 
HETATM    3  N   UNL     1       8.100  -3.767  -2.132  1.00  0.00    -0.288 N 
HETATM    4  C   UNL     1       8.962  -2.724  -2.480  1.00  0.00     0.330 C 
HETATM    5  O   UNL     1      10.109  -2.872  -2.893  1.00  0.00    -0.246 OA
HETATM    6  N   UNL     1       8.457  -1.463  -2.386  1.00  0.00    -0.273 N 
HETATM    7  C   UNL     1       7.131  -1.189  -2.441  1.00  0.00     0.279 C 
HETATM    8  O   UNL     1       6.709  -0.093  -2.792  1.00  0.00    -0.265 OA
HETATM    9  H   UNL     1       9.077  -0.729  -2.693  1.00  0.00     0.173 HD
ENDROOT
BRANCH   1  10
HETATM   10  N   UNL     1       4.884  -2.037  -1.846  1.00  0.00    -0.308 N 
HETATM   11  C   UNL     1       3.947  -1.877  -2.886  1.00  0.00     0.228 C 
HETATM   12  O   UNL     1       2.796  -1.503  -2.586  1.00  0.00    -0.273 OA
BRANCH  10  13
HETATM   13  C   UNL     1       4.501  -1.561  -0.497  1.00  0.00     0.158 C 
BRANCH  13  14
HETATM   14  C   UNL     1       4.676  -0.047  -0.313  1.00  0.00     0.187 C 
BRANCH  14  15
HETATM   15  O   UNL     1       4.339   0.337   1.024  1.00  0.00    -0.394 OA
HETATM   16  C   UNL     1       4.511   1.741   1.202  1.00  0.00     0.201 C 
ENDBRANCH  14  15
ENDBRANCH  13  14
ENDBRANCH  10  13
BRANCH  11  17
HETATM   17  C   UNL     1       4.228  -2.196  -4.372  1.00  0.00     0.078 A 
HETATM   18  C   UNL     1       5.426  -2.919  -5.012  1.00  0.00     0.014 A 
HETATM   19  C   UNL     1       5.616  -1.758  -5.995  1.00  0.00     0.002 A 
HETATM   20  C   UNL     1       4.506  -0.981  -5.288  1.00  0.00     0.014 A 
ENDBRANCH  11  17
ENDBRANCH   1  10
BRANCH   2  21
HETATM   21  N   UNL     1       5.907  -4.552  -1.387  1.00  0.00    -0.286 NA
HETATM   22  H   UNL     1       4.921  -4.299  -1.460  1.00  0.00     0.125 HD
HETATM   23  H   UNL     1       6.085  -5.475  -1.759  1.00  0.00     0.125 HD
ENDBRANCH   2  21
BRANCH   3  24
HETATM   24  C   UNL     1       8.643  -5.125  -2.285  1.00  0.00     0.138 C 
BRANCH  24  25
HETATM   25  C   UNL     1       9.815  -5.485  -1.348  1.00  0.00    -0.004 C 
HETATM   26  C   UNL     1       9.401  -5.502   0.121  1.00  0.00     0.011 C 
HETATM   27  C   UNL     1      10.388  -6.849  -1.747  1.00  0.00     0.011 C 
ENDBRANCH  24  25
ENDBRANCH   3  24
TORSDOF 8
