REMARK  4 active torsions:
REMARK  status: ('A' for Active; 'I' for Inactive)
REMARK    1  A    between atoms: S_2  and  N_5 
REMARK    2  A    between atoms: C_8  and  C_9 
REMARK    3  A    between atoms: C_9  and  N_10 
REMARK       I    between atoms: N_10  and  C_11 
REMARK       I    between atoms: C_11  and  N_13 
REMARK    4  A    between atoms: N_13  and  C_14 
ROOT
HETATM    1  N   UNL     1       2.599   5.986  -0.749  1.00  0.00    -0.342 N 
HETATM    2  C   UNL     1       3.047   6.296  -2.015  1.00  0.00     0.320 C 
HETATM    3  O   UNL     1       4.077   5.837  -2.489  1.00  0.00    -0.247 OA
HETATM    4  N   UNL     1       2.132   7.081  -2.688  1.00  0.00    -0.309 N 
HETATM    5  H   UNL     1       2.059   6.702  -0.280  1.00  0.00     0.164 HD
HETATM    6  H   UNL     1       1.178   6.915  -2.399  1.00  0.00     0.170 HD
ENDROOT
BRANCH   1   7
HETATM    7  C   UNL     1       3.319   5.032   0.064  1.00  0.00     0.129 C 
BRANCH   7   8
HETATM    8  C   UNL     1       2.401   3.906   0.569  1.00  0.00     0.006 C 
HETATM    9  C   UNL     1       3.205   2.900   1.406  1.00  0.00     0.027 C 
HETATM   10  C   UNL     1       4.122   2.028   0.551  1.00  0.00     0.135 C 
HETATM   11  N   UNL     1       3.363   1.350  -0.520  1.00  0.00    -0.311 N 
HETATM   12  C   UNL     1       2.589   2.268  -1.387  1.00  0.00     0.135 C 
HETATM   13  C   UNL     1       1.666   3.153  -0.559  1.00  0.00     0.027 C 
BRANCH  11  14
HETATM   14  S   UNL     1       2.727  -0.187  -0.202  1.00  0.00     0.224 S 
HETATM   15  C   UNL     1       4.207  -1.178  -0.220  1.00  0.00     0.186 C 
HETATM   16  O   UNL     1       1.918  -0.596  -1.331  1.00  0.00    -0.206 OA
HETATM   17  O   UNL     1       2.192  -0.187   1.144  1.00  0.00    -0.206 OA
ENDBRANCH  11  14
ENDBRANCH   7   8
ENDBRANCH   1   7
BRANCH   4  18
HETATM   18  C   UNL     1       2.333   7.430  -4.040  1.00  0.00     0.038 A 
HETATM   19  C   UNL     1       1.273   7.297  -4.931  1.00  0.00     0.046 A 
HETATM   20  C   UNL     1       1.521   7.544  -6.271  1.00  0.00     0.090 A 
HETATM   21  N   UNL     1       2.712   7.959  -6.753  1.00  0.00    -0.375 N 
HETATM   22  C   UNL     1       3.709   8.118  -5.857  1.00  0.00     0.090 A 
ATOM     23  HN  UNL     1       2.852   8.143  -7.746  1.00  0.00     0.164 HD
HETATM   24  C   UNL     1       3.574   7.868  -4.504  1.00  0.00     0.046 A 
ENDBRANCH   4  18
TORSDOF 4
