REMARK  4 active torsions:
REMARK  status: ('A' for Active; 'I' for Inactive)
REMARK       I    between atoms: C_2  and  N_3 
REMARK       I    between atoms: C_2  and  N_13 
REMARK    1  A    between atoms: N_3  and  C_4 
REMARK    2  A    between atoms: C_4  and  C_5 
REMARK    3  A    between atoms: C_5  and  C_6 
REMARK       I    between atoms: N_17  and  C_20 
REMARK    4  A    between atoms: C_20  and  C_22 
ROOT
HETATM    1  O   UNL     1       1.136  -0.440   0.549  1.00  0.00    -0.247 OA
HETATM    2  C   UNL     1       2.219  -0.075   0.102  1.00  0.00     0.318 C 
HETATM    3  N   UNL     1       2.761   1.142   0.441  1.00  0.00    -0.343 N 
HETATM    4  N   UNL     1       2.977  -0.839  -0.775  1.00  0.00    -0.333 N 
HETATM    5  C   UNL     1       4.209  -0.402  -1.439  1.00  0.00     0.129 C 
HETATM    6  C   UNL     1       5.423  -1.114  -0.849  1.00  0.00     0.040 C 
HETATM    7  C   UNL     1       5.735  -2.429  -1.568  1.00  0.00     0.127 C 
HETATM    8  N   UNL     1       4.587  -3.288  -1.852  1.00  0.00    -0.350 N 
HETATM    9  C   UNL     1       3.478  -3.304  -0.889  1.00  0.00     0.145 C 
HETATM   10  C   UNL     1       2.469  -2.171  -1.146  1.00  0.00     0.147 C 
HETATM   11  C   UNL     1       4.452  -4.076  -2.999  1.00  0.00     0.224 C 
HETATM   12  O   UNL     1       3.441  -4.735  -3.231  1.00  0.00    -0.273 OA
HETATM   13  H   UNL     1       3.763   1.128   0.544  1.00  0.00     0.164 HD
ENDROOT
BRANCH   3  14
HETATM   14  C   UNL     1       2.042   2.009   1.364  1.00  0.00     0.129 C 
BRANCH  14  15
HETATM   15  C   UNL     1       2.723   3.369   1.514  1.00  0.00     0.060 C 
BRANCH  15  16
HETATM   16  C   UNL     1       2.024   4.261   2.503  1.00  0.00    -0.041 A 
HETATM   17  C   UNL     1       1.037   5.164   2.106  1.00  0.00     0.010 A 
HETATM   18  C   UNL     1       0.418   5.973   3.055  1.00  0.00     0.018 A 
HETATM   19  C   UNL     1       0.805   5.847   4.378  1.00  0.00     0.087 A 
HETATM   20  N   UNL     1       1.747   4.980   4.804  1.00  0.00    -0.375 N 
HETATM   21  C   UNL     1       2.331   4.206   3.860  1.00  0.00     0.094 A 
ATOM     22  HN  UNL     1       2.006   4.911   5.788  1.00  0.00     0.164 HD
ENDBRANCH  15  16
ENDBRANCH  14  15
ENDBRANCH   3  14
BRANCH  11  23
HETATM   23  C   UNL     1       5.563  -4.077  -4.003  1.00  0.00     0.078 A 
HETATM   24  C   UNL     1       5.237  -3.705  -5.435  1.00  0.00     0.015 A 
HETATM   25  C   UNL     1       5.626  -5.115  -5.101  1.00  0.00     0.015 A 
ENDBRANCH  11  23
TORSDOF 4
