REMARK  4 active torsions:
REMARK  status: ('A' for Active; 'I' for Inactive)
REMARK       I    between atoms: C_2  and  N_3 
REMARK       I    between atoms: C_2  and  N_12 
REMARK    1  A    between atoms: N_3  and  C_4 
REMARK    2  A    between atoms: C_4  and  C_5 
REMARK    3  A    between atoms: N_12  and  C_13 
REMARK    4  A    between atoms: C_16  and  N_20 
ROOT
HETATM    1  O   UNL     1       2.699   0.417  -1.103  1.00  0.00    -0.247 OA
HETATM    2  C   UNL     1       2.298   0.030  -0.013  1.00  0.00     0.320 C 
HETATM    3  N   UNL     1       0.950  -0.010   0.297  1.00  0.00    -0.342 N 
HETATM    4  N   UNL     1       3.074  -0.390   1.045  1.00  0.00    -0.308 N 
HETATM    5  H   UNL     1       0.669  -0.592   1.073  1.00  0.00     0.164 HD
HETATM    6  H   UNL     1       2.591  -0.557   1.916  1.00  0.00     0.170 HD
ENDROOT
BRANCH   4   7
HETATM    7  C   UNL     1       4.480  -0.540   1.065  1.00  0.00     0.051 A 
HETATM    8  C   UNL     1       5.314  -0.324  -0.020  1.00  0.00     0.035 A 
HETATM    9  C   UNL     1       6.695  -0.518   0.114  1.00  0.00     0.051 A 
HETATM   10  C   UNL     1       7.248  -0.928   1.327  1.00  0.00     0.103 A 
HETATM   11  N   UNL     1       6.438  -1.155   2.383  1.00  0.00    -0.350 N 
HETATM   12  C   UNL     1       5.102  -0.952   2.238  1.00  0.00     0.119 A 
ATOM     13  HN  UNL     1       6.822  -1.473   3.273  1.00  0.00     0.166 HD
BRANCH  10  14
HETATM   14  N   UNL     1       8.606  -1.139   1.463  1.00  0.00    -0.367 N 
HETATM   15  C   UNL     1       9.577  -0.397   0.664  1.00  0.00     0.124 C 
HETATM   16  C   UNL     1      10.855  -0.383   1.503  1.00  0.00     0.021 C 
HETATM   17  C   UNL     1      10.380  -0.638   2.923  1.00  0.00     0.021 C 
HETATM   18  C   UNL     1       9.166  -1.542   2.748  1.00  0.00     0.124 C 
ENDBRANCH  10  14
ENDBRANCH   4   7
BRANCH   3  19
HETATM   19  C   UNL     1      -0.061   0.310  -0.693  1.00  0.00     0.130 C 
BRANCH  19  20
HETATM   20  C   UNL     1      -0.898   1.530  -0.299  1.00  0.00     0.018 C 
HETATM   21  C   UNL     1      -1.964   1.854  -1.367  1.00  0.00     0.022 C 
HETATM   22  C   UNL     1      -2.198   3.365  -1.455  1.00  0.00     0.141 C 
HETATM   23  S   UNL     1      -1.192   4.122  -0.207  1.00  0.00     0.144 S 
HETATM   24  O   UNL     1      -0.529   5.284  -0.760  1.00  0.00    -0.228 OA
HETATM   25  O   UNL     1      -1.954   4.175   1.025  1.00  0.00    -0.228 OA
HETATM   26  C   UNL     1      -0.040   2.782  -0.097  1.00  0.00     0.146 C 
ENDBRANCH  19  20
ENDBRANCH   3  19
TORSDOF 4
