REMARK  4 active torsions:
REMARK  status: ('A' for Active; 'I' for Inactive)
REMARK    1  A    between atoms: C_2  and  C_3 
REMARK    2  A    between atoms: C_2  and  N_10 
REMARK    3  A    between atoms: C_3  and  N_4 
REMARK       I    between atoms: N_10  and  C_11 
REMARK    4  A    between atoms: C_11  and  C_13 
ROOT
HETATM    1  C   UNL     1       0.963   0.011   0.148  1.00  0.00     0.034 C 
HETATM    2  C   UNL     1       2.488  -0.029   0.064  1.00  0.00     0.098 C 
ENDROOT
BRANCH   2   3
HETATM    3  C   UNL     1       2.999   0.059  -1.389  1.00  0.00     0.153 C 
BRANCH   3   4
HETATM    4  N   UNL     1       2.543  -1.022  -2.241  1.00  0.00    -0.350 N 
HETATM    5  C   UNL     1       1.769  -0.901  -3.361  1.00  0.00     0.108 A 
HETATM    6  C   UNL     1       1.596  -2.189  -3.812  1.00  0.00     0.106 A 
HETATM    7  N   UNL     1       2.250  -3.080  -3.002  1.00  0.00    -0.361 N 
HETATM    8  C   UNL     1       2.827  -2.347  -2.075  1.00  0.00     0.182 A 
ATOM      9  HN  UNL     1       2.282  -4.095  -3.098  1.00  0.00     0.166 HD
ENDBRANCH   3   4
ENDBRANCH   2   3
BRANCH   2  10
HETATM   10  N   UNL     1       3.048   1.045   0.889  1.00  0.00    -0.355 N 
HETATM   11  C   UNL     1       4.331   0.971   1.398  1.00  0.00     0.222 C 
HETATM   12  O   UNL     1       5.048  -0.004   1.163  1.00  0.00    -0.273 OA
HETATM   13  H   UNL     1       2.506   1.887   1.039  1.00  0.00     0.162 HD
BRANCH  11  14
HETATM   14  C   UNL     1       4.771   2.181   2.259  1.00  0.00     0.078 C 
HETATM   15  C   UNL     1       4.322   3.617   1.869  1.00  0.00     0.014 C 
HETATM   16  C   UNL     1       5.710   4.111   2.320  1.00  0.00     0.002 C 
HETATM   17  C   UNL     1       6.226   2.688   2.051  1.00  0.00     0.014 C 
ENDBRANCH  11  14
ENDBRANCH   2  10
TORSDOF 4
