REMARK  6 active torsions:
REMARK  status: ('A' for Active; 'I' for Inactive)
REMARK    1  A    between atoms: C_5  and  C_6 
REMARK    2  A    between atoms: C_6  and  N_7 
REMARK    3  A    between atoms: N_7  and  C_8 
REMARK    4  A    between atoms: C_8  and  C_9 
REMARK    5  A    between atoms: C_9  and  N_10 
REMARK    6  A    between atoms: C_9  and  C_13 
ROOT
HETATM    1  C   UNL     1       6.610   0.222  -3.773  1.00  0.00     0.310 C 
ENDROOT
BRANCH   1   2
HETATM    2  N   UNL     1       5.184  -0.085  -3.945  1.00  0.00     0.086 N 
HETATM    3  H   UNL     1       4.684   0.792  -3.864  1.00  0.00     0.315 HD
BRANCH   2   4
HETATM    4  C   UNL     1       4.690  -0.976  -2.894  1.00  0.00     0.274 C 
BRANCH   4   5
HETATM    5  C   UNL     1       3.176  -1.240  -3.072  1.00  0.00     0.014 C 
HETATM    6  C   UNL     1       2.307   0.033  -3.066  1.00  0.00     0.007 C 
HETATM    7  C   UNL     1       2.242   0.695  -1.690  1.00  0.00     0.005 C 
HETATM    8  C   UNL     1       1.760  -0.269  -0.597  1.00  0.00    -0.019 C 
HETATM    9  C   UNL     1       0.258  -0.544  -0.719  1.00  0.00     0.010 C 
HETATM   10  C   UNL     1       2.573  -1.572  -0.607  1.00  0.00     0.005 C 
HETATM   11  C   UNL     1       2.668  -2.213  -1.994  1.00  0.00     0.007 C 
ENDBRANCH   4   5
ENDBRANCH   2   4
ENDBRANCH   1   2
BRANCH   1  12
HETATM   12  C   UNL     1       7.206   1.204  -4.847  1.00  0.00     0.285 C 
BRANCH  12  13
HETATM   13  N   UNL     1       6.639   2.572  -4.970  1.00  0.00     0.090 N 
HETATM   14  C   UNL     1       5.283   2.624  -5.507  1.00  0.00     0.310 C 
HETATM   15  C   UNL     1       6.760   3.404  -3.778  1.00  0.00     0.310 C 
ENDBRANCH  12  13
BRANCH  12  16
HETATM   16  C   UNL     1       8.709   1.309  -4.674  1.00  0.00     0.011 A 
HETATM   17  C   UNL     1       9.456   1.273  -3.469  1.00  0.00     0.118 A 
HETATM   18  N   UNL     1      10.773   1.333  -3.666  1.00  0.00    -0.310 N 
HETATM   19  N   UNL     1      10.885   1.429  -5.000  1.00  0.00    -0.308 N 
ATOM     20  HN  UNL     1      11.518   1.311  -2.969  1.00  0.00     0.186 HD
HETATM   21  C   UNL     1      12.193   1.470  -5.607  1.00  0.00     0.177 C 
HETATM   22  C   UNL     1       9.684   1.428  -5.649  1.00  0.00     0.120 A 
ENDBRANCH  12  16
ENDBRANCH   1  12
TORSDOF 6
