REMARK  4 active torsions:
REMARK  status: ('A' for Active; 'I' for Inactive)
REMARK    1  A    between atoms: N_7  and  C_8 
REMARK    2  A    between atoms: C_8  and  C_9 
REMARK       I    between atoms: C_9  and  N_11 
REMARK    3  A    between atoms: N_11  and  C_12 
REMARK    4  A    between atoms: C_12  and  C_13 
ROOT
HETATM    1  C   UNL     1       5.015  -2.577   0.001  1.00  0.00     0.235 C 
ENDROOT
BRANCH   1   2
HETATM    2  N   UNL     1       5.127  -2.028   1.358  1.00  0.00    -0.301 N 
HETATM    3  C   UNL     1       3.994  -1.580   2.007  1.00  0.00     0.102 C 
HETATM    4  C   UNL     1       4.048  -1.033   3.218  1.00  0.00     0.092 C 
HETATM    5  C   UNL     1       5.354  -0.840   3.869  1.00  0.00     0.252 C 
HETATM    6  N   UNL     1       6.458  -1.223   3.132  1.00  0.00    -0.271 N 
HETATM    7  O   UNL     1       5.387  -0.351   4.994  1.00  0.00    -0.268 OA
HETATM    8  C   UNL     1       7.778  -0.939   3.658  1.00  0.00     0.164 C 
HETATM    9  C   UNL     1       6.394  -1.901   1.918  1.00  0.00     0.331 C 
HETATM   10  O   UNL     1       7.402  -2.343   1.361  1.00  0.00    -0.246 OA
ENDBRANCH   1   2
BRANCH   1  11
HETATM   11  C   UNL     1       4.135  -3.824  -0.121  1.00  0.00     0.236 C 
HETATM   12  O   UNL     1       2.924  -3.793   0.099  1.00  0.00    -0.272 OA
HETATM   13  N   UNL     1       4.788  -4.979  -0.510  1.00  0.00    -0.357 N 
HETATM   14  H   UNL     1       5.775  -5.062  -0.283  1.00  0.00     0.162 HD
BRANCH  13  15
HETATM   15  C   UNL     1       4.032  -6.219  -0.587  1.00  0.00     0.154 C 
BRANCH  15  16
HETATM   16  C   UNL     1       4.863  -7.400  -1.085  1.00  0.00     0.139 C 
HETATM   17  C   UNL     1       4.053  -8.686  -1.156  1.00  0.00     0.035 C 
HETATM   18  C   UNL     1       5.018  -9.776  -0.745  1.00  0.00     0.029 C 
HETATM   19  C   UNL     1       6.285  -9.050  -0.342  1.00  0.00     0.168 C 
HETATM   20  O   UNL     1       5.935  -7.674  -0.167  1.00  0.00    -0.384 OA
ENDBRANCH  15  16
ENDBRANCH  13  15
ENDBRANCH   1  11
TORSDOF 4
