REMARK  3 active torsions:
REMARK  status: ('A' for Active; 'I' for Inactive)
REMARK       I    between atoms: N_7  and  C_9 
REMARK       I    between atoms: C_9  and  N_11 
REMARK    1  A    between atoms: N_11  and  C_12 
REMARK    2  A    between atoms: C_12  and  C_13 
REMARK    3  A    between atoms: C_13  and  C_14 
ROOT
HETATM    1  C   UNL     1       0.935   0.083   0.092  1.00  0.00     0.011 C 
HETATM    2  C   UNL     1       2.455   0.020  -0.079  1.00  0.00    -0.000 C 
HETATM    3  C   UNL     1       2.961   1.062  -1.090  1.00  0.00     0.011 C 
HETATM    4  C   UNL     1       2.601   0.697  -2.541  1.00  0.00    -0.000 C 
HETATM    5  C   UNL     1       3.212   1.705  -3.512  1.00  0.00     0.011 C 
HETATM    6  C   UNL     1       3.058  -0.736  -2.864  1.00  0.00     0.132 C 
HETATM    7  N   UNL     1       2.525  -1.679  -1.875  1.00  0.00    -0.334 N 
HETATM    8  C   UNL     1       2.906  -1.386  -0.494  1.00  0.00     0.132 C 
HETATM    9  C   UNL     1       1.800  -2.830  -2.121  1.00  0.00     0.318 C 
HETATM   10  O   UNL     1       1.437  -3.597  -1.232  1.00  0.00    -0.247 OA
HETATM   11  N   UNL     1       1.514  -3.088  -3.433  1.00  0.00    -0.343 N 
HETATM   12  H   UNL     1       1.383  -2.281  -4.027  1.00  0.00     0.164 HD
ENDROOT
BRANCH  11  13
HETATM   13  C   UNL     1       0.698  -4.234  -3.811  1.00  0.00     0.132 C 
BRANCH  13  14
HETATM   14  C   UNL     1      -0.801  -3.926  -3.784  1.00  0.00     0.106 C 
BRANCH  14  15
HETATM   15  C   UNL     1      -1.157  -2.910  -4.808  1.00  0.00     0.149 A 
HETATM   16  N   UNL     1      -0.453  -1.892  -5.259  1.00  0.00    -0.327 N 
HETATM   17  C   UNL     1      -1.297  -1.357  -6.196  1.00  0.00     0.100 A 
ATOM     18  HN  UNL     1       0.479  -1.582  -4.982  1.00  0.00     0.169 HD
HETATM   19  C   UNL     1      -0.931  -0.181  -7.008  1.00  0.00     0.091 C 
HETATM   20  N   UNL     1      -2.470  -1.989  -6.330  1.00  0.00    -0.248 N 
HETATM   21  O   UNL     1      -2.381  -3.028  -5.400  1.00  0.00    -0.223 OA
ATOM     22  HN  UNL     1      -3.242  -1.766  -6.959  1.00  0.00     0.196 HD
ENDBRANCH  14  15
ENDBRANCH  13  14
ENDBRANCH  11  13
TORSDOF 3
