REMARK  3 active torsions:
REMARK  status: ('A' for Active; 'I' for Inactive)
REMARK    1  A    between atoms: C_7  and  N_8 
REMARK       I    between atoms: N_8  and  C_9 
REMARK    2  A    between atoms: C_9  and  C_11 
REMARK    3  A    between atoms: C_11  and  C_12 
ROOT
HETATM    1  C   UNL     1       2.484  -3.473   2.770  1.00  0.00     0.149 C 
ENDROOT
BRANCH   1   2
HETATM    2  C   UNL     1       3.002  -2.295   1.945  1.00  0.00     0.222 C 
HETATM    3  N   UNL     1       2.592  -2.306   0.629  1.00  0.00    -0.356 N 
HETATM    4  H   UNL     1       1.726  -2.810   0.437  1.00  0.00     0.162 HD
HETATM    5  O   UNL     1       3.731  -1.433   2.427  1.00  0.00    -0.273 OA
BRANCH   3   6
HETATM    6  C   UNL     1       2.999  -1.281  -0.324  1.00  0.00     0.088 C 
HETATM    7  C   UNL     1       2.177   0.024  -0.204  1.00  0.00     0.004 C 
HETATM    8  C   UNL     1       0.666  -0.176  -0.375  1.00  0.00     0.012 C 
HETATM    9  C   UNL     1       2.698   1.052  -1.225  1.00  0.00     0.006 C 
HETATM   10  C   UNL     1       2.711   0.514  -2.656  1.00  0.00     0.001 C 
HETATM   11  C   UNL     1       3.467  -0.807  -2.764  1.00  0.00     0.002 C 
HETATM   12  C   UNL     1       2.979  -1.841  -1.752  1.00  0.00     0.025 C 
ENDBRANCH   3   6
ENDBRANCH   1   2
BRANCH   1  13
HETATM   13  C   UNL     1       1.236  -3.097   3.512  1.00  0.00     0.041 C 
HETATM   14  C   UNL     1       1.027  -3.056   4.843  1.00  0.00     0.018 C 
HETATM   15  C   UNL     1       2.056  -3.446   5.874  1.00  0.00     0.069 C 
HETATM   16  N   UNL     1      -0.167  -2.668   5.417  1.00  0.00    -0.349 N 
HETATM   17  C   UNL     1      -1.114  -2.265   4.640  1.00  0.00     0.080 C 
ATOM     18  HN  UNL     1      -0.297  -2.699   6.428  1.00  0.00     0.167 HD
HETATM   19  C   UNL     1      -2.425  -1.796   5.198  1.00  0.00     0.089 C 
HETATM   20  N   UNL     1      -1.008  -2.239   3.284  1.00  0.00    -0.313 N 
HETATM   21  C   UNL     1       0.061  -2.792   2.656  1.00  0.00     0.255 C 
HETATM   22  H   UNL     1      -1.807  -2.027   2.706  1.00  0.00     0.170 HD
HETATM   23  O   UNL     1       0.045  -3.062   1.458  1.00  0.00    -0.268 OA
ENDBRANCH   1  13
TORSDOF 3
