REMARK  5 active torsions:
REMARK  status: ('A' for Active; 'I' for Inactive)
REMARK    1  A    between atoms: N_2  and  C_3 
REMARK       I    between atoms: N_2  and  C_21 
REMARK    2  A    between atoms: C_3  and  C_4 
REMARK       I    between atoms: C_4  and  N_6 
REMARK    3  A    between atoms: N_6  and  C_7 
REMARK    4  A    between atoms: C_7  and  C_8 
REMARK    5  A    between atoms: C_11  and  N_15 
ROOT
HETATM    1  C   UNL     1       2.612  -0.077   6.190  1.00  0.00    -0.025 A 
HETATM    2  C   UNL     1       2.993   1.111   6.801  1.00  0.00     0.014 A 
HETATM    3  C   UNL     1       3.779   1.079   7.961  1.00  0.00     0.049 A 
HETATM    4  C   UNL     1       4.188  -0.134   8.518  1.00  0.00     0.103 A 
HETATM    5  N   UNL     1       3.784  -1.289   7.944  1.00  0.00    -0.352 N 
ATOM      6  HN  UNL     1       4.046  -2.186   8.352  1.00  0.00     0.166 HD
HETATM    7  C   UNL     1       3.025  -1.243   6.817  1.00  0.00     0.098 A 
ENDROOT
BRANCH   1   8
HETATM    8  C   UNL     1       1.832  -0.095   4.907  1.00  0.00     0.162 C 
BRANCH   8   9
HETATM    9  N   UNL     1       0.394  -0.079   5.099  1.00  0.00    -0.355 N 
HETATM   10  C   UNL     1      -0.452   0.005   4.007  1.00  0.00     0.235 C 
HETATM   11  O   UNL     1      -0.033   0.127   2.856  1.00  0.00    -0.272 OA
HETATM   12  H   UNL     1       0.022  -0.131   6.038  1.00  0.00     0.162 HD
BRANCH  10  13
HETATM   13  C   UNL     1      -1.956  -0.113   4.324  1.00  0.00     0.227 C 
BRANCH  13  14
HETATM   14  N   UNL     1      -2.771   0.950   3.723  1.00  0.00    -0.348 N 
HETATM   15  C   UNL     1      -3.008   2.142   4.521  1.00  0.00     0.153 C 
HETATM   16  C   UNL     1      -3.336   0.940   2.457  1.00  0.00     0.215 C 
HETATM   17  O   UNL     1      -4.046   1.873   2.067  1.00  0.00    -0.274 OA
HETATM   18  C   UNL     1      -3.118  -0.240   1.543  1.00  0.00     0.117 C 
ENDBRANCH  13  14
ENDBRANCH  10  13
ENDBRANCH   8   9
ENDBRANCH   1   8
BRANCH   4  19
HETATM   19  N   UNL     1       4.938  -0.181   9.679  1.00  0.00    -0.363 N 
HETATM   20  C   UNL     1       5.967   0.823   9.998  1.00  0.00     0.150 C 
HETATM   21  C   UNL     1       7.380   0.227   9.871  1.00  0.00     0.187 C 
HETATM   22  O   UNL     1       7.526  -0.967  10.654  1.00  0.00    -0.388 OA
HETATM   23  C   UNL     1       6.588  -1.962  10.208  1.00  0.00     0.187 C 
HETATM   24  C   UNL     1       5.139  -1.473  10.359  1.00  0.00     0.150 C 
ENDBRANCH   4  19
TORSDOF 5
