REMARK  2 active torsions:
REMARK  status: ('A' for Active; 'I' for Inactive)
REMARK       I    between atoms: N_2  and  C_3 
REMARK       I    between atoms: C_3  and  N_5 
REMARK    1  A    between atoms: N_5  and  C_6 
REMARK    2  A    between atoms: C_9  and  N_13 
ROOT
HETATM    1  C   UNL     1       5.318  -0.040   2.529  1.00  0.00     0.051 A 
HETATM    2  C   UNL     1       5.897   1.142   2.966  1.00  0.00     0.035 A 
HETATM    3  C   UNL     1       6.711   1.126   4.096  1.00  0.00     0.051 A 
HETATM    4  C   UNL     1       7.000  -0.071   4.760  1.00  0.00     0.103 A 
HETATM    5  N   UNL     1       6.459  -1.227   4.311  1.00  0.00    -0.350 N 
ATOM      6  HN  UNL     1       6.676  -2.112   4.769  1.00  0.00     0.166 HD
HETATM    7  C   UNL     1       5.623  -1.190   3.241  1.00  0.00     0.119 A 
ENDROOT
BRANCH   1   8
HETATM    8  N   UNL     1       4.462  -0.001   1.413  1.00  0.00    -0.308 N 
HETATM    9  C   UNL     1       3.281  -0.714   1.352  1.00  0.00     0.320 C 
HETATM   10  N   UNL     1       2.645  -0.479   0.152  1.00  0.00    -0.347 N 
HETATM   11  O   UNL     1       2.813  -1.400   2.247  1.00  0.00    -0.247 OA
HETATM   12  C   UNL     1       1.311  -0.986  -0.060  1.00  0.00     0.151 C 
HETATM   13  H   UNL     1       3.262  -0.465  -0.648  1.00  0.00     0.163 HD
HETATM   14  H   UNL     1       4.422   0.867   0.899  1.00  0.00     0.170 HD
ENDBRANCH   1   8
BRANCH   4  15
HETATM   15  N   UNL     1       7.775  -0.090   5.900  1.00  0.00    -0.363 N 
HETATM   16  C   UNL     1       8.874   0.856   6.132  1.00  0.00     0.150 C 
HETATM   17  C   UNL     1      10.229   0.130   6.111  1.00  0.00     0.187 C 
HETATM   18  O   UNL     1      10.257  -0.976   7.025  1.00  0.00    -0.388 OA
HETATM   19  C   UNL     1       9.241  -1.932   6.667  1.00  0.00     0.187 C 
HETATM   20  C   UNL     1       7.839  -1.310   6.720  1.00  0.00     0.150 C 
ENDBRANCH   4  15
TORSDOF 2
