REMARK  4 active torsions:
REMARK  status: ('A' for Active; 'I' for Inactive)
REMARK    1  A    between atoms: N_2  and  C_4 
REMARK    2  A    between atoms: N_9  and  C_10 
REMARK    3  A    between atoms: C_10  and  C_11 
REMARK       I    between atoms: C_11  and  N_13 
REMARK    4  A    between atoms: N_13  and  C_14 
ROOT
HETATM    1  C   UNL     1       2.839  -6.530  -1.077  1.00  0.00     0.236 C 
HETATM    2  O   UNL     1       3.500  -7.395  -0.505  1.00  0.00    -0.272 OA
HETATM    3  N   UNL     1       1.611  -6.083  -0.620  1.00  0.00    -0.355 N 
HETATM    4  H   UNL     1       0.987  -5.633  -1.290  1.00  0.00     0.162 HD
ENDROOT
BRANCH   1   5
HETATM    5  C   UNL     1       3.329  -5.877  -2.364  1.00  0.00     0.234 C 
BRANCH   5   6
HETATM    6  N   UNL     1       2.976  -6.648  -3.551  1.00  0.00    -0.314 N 
HETATM    7  C   UNL     1       1.743  -6.387  -4.145  1.00  0.00     0.247 A 
HETATM    8  C   UNL     1       1.468  -7.117  -5.416  1.00  0.00     0.077 A 
HETATM    9  O   UNL     1       0.912  -5.606  -3.694  1.00  0.00    -0.268 OA
HETATM   10  C   UNL     1       2.356  -7.997  -5.902  1.00  0.00     0.043 A 
HETATM   11  C   UNL     1       3.592  -8.250  -5.195  1.00  0.00     0.118 A 
HETATM   12  C   UNL     1       3.872  -7.588  -4.059  1.00  0.00     0.130 A 
BRANCH  11  13
HETATM   13  N   UNL     1       4.587  -9.193  -5.711  1.00  0.00    -0.114 N 
HETATM   14  O   UNL     1       5.653  -9.326  -5.094  1.00  0.00    -0.532 OA
HETATM   15  O   UNL     1       4.302  -9.797  -6.757  1.00  0.00    -0.532 OA
ENDBRANCH  11  13
ENDBRANCH   5   6
ENDBRANCH   1   5
BRANCH   3  16
HETATM   16  C   UNL     1       1.090  -6.511   0.678  1.00  0.00     0.084 C 
HETATM   17  C   UNL     1       0.262  -7.793   0.540  1.00  0.00     0.025 C 
HETATM   18  C   UNL     1      -0.121  -8.488   1.851  1.00  0.00     0.002 C 
HETATM   19  C   UNL     1       1.020  -8.624   2.863  1.00  0.00     0.000 C 
HETATM   20  C   UNL     1       0.995  -7.614   4.015  1.00  0.00     0.000 C 
HETATM   21  C   UNL     1       1.198  -6.131   3.683  1.00  0.00     0.000 C 
HETATM   22  C   UNL     1       0.073  -5.494   2.862  1.00  0.00     0.002 C 
HETATM   23  C   UNL     1       0.338  -5.358   1.355  1.00  0.00     0.025 C 
ENDBRANCH   3  16
TORSDOF 4
