REMARK  7 active torsions:
REMARK  status: ('A' for Active; 'I' for Inactive)
REMARK    1  A    between atoms: C_2  and  C_3 
REMARK    2  A    between atoms: C_2  and  N_10 
REMARK    3  A    between atoms: C_3  and  N_4 
REMARK    4  A    between atoms: N_10  and  C_11 
REMARK    5  A    between atoms: C_11  and  C_12 
REMARK    6  A    between atoms: C_12  and  C_13 
REMARK       I    between atoms: C_13  and  N_15 
REMARK    7  A    between atoms: N_15  and  C_16 
ROOT
HETATM    1  N   UNL     1       2.945  -1.382   0.578  1.00  0.00     0.089 N 
HETATM    2  H   UNL     1       2.575  -2.154   0.019  1.00  0.00     0.316 HD
ENDROOT
BRANCH   1   3
HETATM    3  C   UNL     1       2.371  -0.113   0.047  1.00  0.00     0.236 C 
HETATM    4  C   UNL     1       0.846  -0.259   0.131  1.00  0.00     0.044 C 
BRANCH   3   5
HETATM    5  C   UNL     1       2.855   1.144   0.806  1.00  0.00     0.183 C 
BRANCH   5   6
HETATM    6  N   UNL     1       2.297   2.395   0.323  1.00  0.00    -0.302 N 
HETATM    7  C   UNL     1       1.632   3.329   1.066  1.00  0.00     0.111 A 
HETATM    8  C   UNL     1       1.386   4.385   0.219  1.00  0.00     0.037 A 
HETATM    9  C   UNL     1       1.944   3.992  -1.010  1.00  0.00     0.108 A 
HETATM   10  N   UNL     1       2.501   2.780  -0.953  1.00  0.00    -0.310 N 
ATOM     11  HN  UNL     1       2.970   2.266  -1.699  1.00  0.00     0.186 HD
ENDBRANCH   5   6
ENDBRANCH   3   5
ENDBRANCH   1   3
BRANCH   1  12
HETATM   12  C   UNL     1       4.408  -1.399   0.494  1.00  0.00     0.279 C 
BRANCH  12  13
HETATM   13  C   UNL     1       5.008  -2.721   0.985  1.00  0.00     0.132 C 
BRANCH  13  14
HETATM   14  C   UNL     1       6.519  -2.624   0.899  1.00  0.00     0.219 C 
HETATM   15  O   UNL     1       7.086  -1.624   0.475  1.00  0.00    -0.274 OA
HETATM   16  N   UNL     1       7.189  -3.751   1.327  1.00  0.00    -0.353 N 
HETATM   17  H   UNL     1       6.649  -4.508   1.728  1.00  0.00     0.163 HD
BRANCH  16  18
HETATM   18  C   UNL     1       8.658  -3.864   1.319  1.00  0.00     0.022 C 
HETATM   19  C   UNL     1       9.292  -2.818   2.253  1.00  0.00     0.037 C 
HETATM   20  C   UNL     1       9.052  -5.262   1.827  1.00  0.00     0.037 C 
HETATM   21  C   UNL     1       9.209  -3.706  -0.109  1.00  0.00     0.037 C 
ENDBRANCH  16  18
ENDBRANCH  13  14
ENDBRANCH  12  13
ENDBRANCH   1  12
TORSDOF 7
