REMARK  5 active torsions:
REMARK  status: ('A' for Active; 'I' for Inactive)
REMARK    1  A    between atoms: N_2  and  C_16 
REMARK    2  A    between atoms: N_4  and  C_7 
REMARK    3  A    between atoms: C_15  and  C_16 
REMARK    4  A    between atoms: C_15  and  C_27 
REMARK    5  A    between atoms: C_27  and  O_28 
ROOT
HETATM    1  C   UNL     1       0.229  -0.884  -0.539  1.00  0.00     0.122 A 
HETATM    2  N   UNL     1       1.472   0.865  -0.911  1.00  0.00    -0.326 N 
HETATM    3  C   UNL     1       0.221   0.502  -0.496  1.00  0.00     0.140 A 
HETATM    4  N   UNL     1       1.451  -1.351  -0.992  1.00  0.00    -0.346 N 
ATOM      5  HN  UNL     1       1.727  -2.321  -1.145  1.00  0.00     0.167 HD
HETATM    6  C   UNL     1      -0.922  -1.551  -0.069  1.00  0.00     0.135 A 
HETATM    7  C   UNL     1       2.177  -0.274  -1.182  1.00  0.00     0.185 A 
HETATM    8  N   UNL     1      -0.788   1.304  -0.104  1.00  0.00    -0.336 N 
ATOM      9  HN  UNL     1      -0.762   2.324  -0.121  1.00  0.00     0.168 HD
HETATM   10  N   UNL     1      -1.950  -0.776   0.377  1.00  0.00    -0.337 N 
ATOM     11  HN  UNL     1      -2.795  -1.206   0.754  1.00  0.00     0.168 HD
HETATM   12  C   UNL     1      -1.837   0.568   0.314  1.00  0.00     0.183 A 
ENDROOT
BRANCH   6  13
HETATM   13  N   UNL     1      -0.976  -2.916   0.064  1.00  0.00    -0.359 N 
HETATM   14  C   UNL     1      -1.784  -3.528   1.103  1.00  0.00     0.165 C 
HETATM   15  C   UNL     1      -0.976  -4.705   1.708  1.00  0.00     0.101 C 
HETATM   16  O   UNL     1      -0.540  -5.624   0.676  1.00  0.00    -0.364 OA
HETATM   17  C   UNL     1       0.189  -4.256   2.585  1.00  0.00     0.068 C 
HETATM   18  C   UNL     1      -1.864  -5.461   2.711  1.00  0.00     0.207 C 
HETATM   19  C   UNL     1       0.151  -5.044  -0.462  1.00  0.00     0.071 C 
HETATM   20  C   UNL     1      -0.592  -3.805  -1.030  1.00  0.00     0.161 C 
HETATM   21  C   UNL     1       0.167  -6.151  -1.528  1.00  0.00     0.047 C 
HETATM   22  C   UNL     1       1.614  -4.706  -0.135  1.00  0.00     0.047 C 
HETATM   23  C   UNL     1      -0.391  -4.206   3.973  1.00  0.00     0.170 C 
HETATM   24  O   UNL     1      -1.327  -5.280   4.034  1.00  0.00    -0.388 OA
ENDBRANCH   6  13
BRANCH   2  25
HETATM   25  C   UNL     1       2.011   2.211  -0.972  1.00  0.00     0.147 C 
BRANCH  25  26
HETATM   26  C   UNL     1       1.763   2.900  -2.306  1.00  0.00     0.040 C 
HETATM   27  C   UNL     1       2.416   2.264  -3.550  1.00  0.00     0.183 C 
HETATM   28  O   UNL     1       3.056   3.517  -3.893  1.00  0.00    -0.389 OA
HETATM   29  C   UNL     1       2.768   4.039  -2.571  1.00  0.00     0.183 C 
BRANCH  26  30
HETATM   30  C   UNL     1       0.309   3.279  -2.565  1.00  0.00     0.179 C 
BRANCH  30  31
HETATM   31  O   UNL     1      -0.190   4.045  -1.475  1.00  0.00    -0.400 OA
HETATM   32  H   UNL     1      -0.588   3.413  -0.842  1.00  0.00     0.209 HD
ENDBRANCH  30  31
ENDBRANCH  26  30
ENDBRANCH  25  26
ENDBRANCH   2  25
TORSDOF 5
