REMARK  3 active torsions:
REMARK  status: ('A' for Active; 'I' for Inactive)
REMARK    1  A    between atoms: N_1  and  C_2 
REMARK    2  A    between atoms: C_2  and  C_3 
REMARK    3  A    between atoms: C_3  and  C_4 
ROOT
HETATM    1  C   UNL     1       4.515  -1.125  -0.706  1.00  0.00     0.019 A 
HETATM    2  C   UNL     1       5.245  -1.177   0.462  1.00  0.00     0.078 A 
HETATM    3  S   UNL     1       6.911  -1.253   0.107  1.00  0.00    -0.064 SA
HETATM    4  C   UNL     1       6.566  -1.170  -1.590  1.00  0.00     0.146 A 
HETATM    5  N   UNL     1       5.277  -1.120  -1.862  1.00  0.00    -0.340 N 
ATOM      6  HN  UNL     1       4.890  -1.082  -2.805  1.00  0.00     0.168 HD
HETATM    7  N   UNL     1       7.533  -1.117  -2.539  1.00  0.00    -0.361 N 
HETATM    8  C   UNL     1       7.199  -1.039  -3.949  1.00  0.00     0.125 C 
HETATM    9  C   UNL     1       8.554  -0.930  -4.657  1.00  0.00     0.021 C 
HETATM   10  C   UNL     1       9.587  -0.795  -3.543  1.00  0.00     0.021 C 
HETATM   11  C   UNL     1       8.926  -1.453  -2.340  1.00  0.00     0.125 C 
ENDROOT
BRANCH   1  12
HETATM   12  C   UNL     1       3.025  -1.082  -0.820  1.00  0.00     0.087 C 
BRANCH  12  13
HETATM   13  C   UNL     1       2.428  -2.490  -0.904  1.00  0.00     0.272 C 
BRANCH  13  14
HETATM   14  N   UNL     1       0.965  -2.455  -0.981  1.00  0.00     0.078 N 
HETATM   15  H   UNL     1       0.617  -3.409  -1.070  1.00  0.00     0.312 HD
HETATM   16  H   UNL     1       0.686  -1.976  -1.837  1.00  0.00     0.312 HD
ENDBRANCH  13  14
ENDBRANCH  12  13
ENDBRANCH   1  12
TORSDOF 3
