REMARK  3 active torsions:
REMARK  status: ('A' for Active; 'I' for Inactive)
REMARK    1  A    between atoms: N_7  and  C_8 
REMARK    2  A    between atoms: C_8  and  C_9 
REMARK       I    between atoms: C_9  and  N_11 
REMARK       I    between atoms: N_11  and  C_12 
REMARK       I    between atoms: C_12  and  N_14 
REMARK    3  A    between atoms: N_14  and  C_15 
ROOT
HETATM    1  C   UNL     1       1.003  -2.708  -0.716  1.00  0.00     0.243 C 
HETATM    2  O   UNL     1       2.144  -2.562  -0.271  1.00  0.00    -0.271 OA
HETATM    3  N   UNL     1       0.212  -3.730  -0.216  1.00  0.00    -0.278 N 
HETATM    4  C   UNL     1      -1.156  -3.755  -0.284  1.00  0.00     0.323 C 
HETATM    5  O   UNL     1      -1.833  -2.893  -0.835  1.00  0.00    -0.247 OA
HETATM    6  N   UNL     1      -1.731  -4.850   0.319  1.00  0.00    -0.338 N 
HETATM    7  H   UNL     1       0.657  -4.267   0.511  1.00  0.00     0.173 HD
HETATM    8  H   UNL     1      -1.178  -5.695   0.289  1.00  0.00     0.164 HD
ENDROOT
BRANCH   1   9
HETATM    9  C   UNL     1       0.349  -1.771  -1.743  1.00  0.00     0.233 C 
BRANCH   9  10
HETATM   10  N   UNL     1       1.284  -0.879  -2.408  1.00  0.00    -0.329 N 
HETATM   11  C   UNL     1       1.815  -1.200  -3.635  1.00  0.00     0.144 A 
HETATM   12  N   UNL     1       1.776  -2.300  -4.294  1.00  0.00    -0.379 N 
HETATM   13  S   UNL     1       2.601   0.233  -4.334  1.00  0.00    -0.065 SA
HETATM   14  H   UNL     1       2.270  -2.128  -5.177  1.00  0.00     0.158 HD
ATOM     15  HN  UNL     1       1.340  -3.173  -3.999  1.00  0.00     0.158 HD
HETATM   16  C   UNL     1       2.131   1.192  -2.946  1.00  0.00     0.070 A 
HETATM   17  C   UNL     1       1.462   0.450  -2.054  1.00  0.00     0.101 A 
ENDBRANCH   9  10
ENDBRANCH   1   9
BRANCH   6  18
HETATM   18  C   UNL     1      -3.169  -5.012   0.148  1.00  0.00     0.086 C 
HETATM   19  C   UNL     1      -3.994  -3.847   0.724  1.00  0.00     0.025 C 
HETATM   20  C   UNL     1      -5.272  -4.455   1.289  1.00  0.00     0.002 C 
HETATM   21  C   UNL     1      -5.217  -5.935   0.943  1.00  0.00     0.002 C 
HETATM   22  C   UNL     1      -3.730  -6.245   0.842  1.00  0.00     0.025 C 
ENDBRANCH   6  18
TORSDOF 3
