REMARK  5 active torsions:
REMARK  status: ('A' for Active; 'I' for Inactive)
REMARK    1  A    between atoms: C_2  and  O_3 
REMARK    2  A    between atoms: C_2  and  C_4 
REMARK    3  A    between atoms: C_4  and  N_5 
REMARK       I    between atoms: N_5  and  C_6 
REMARK       I    between atoms: C_6  and  N_8 
REMARK    4  A    between atoms: N_8  and  C_9 
REMARK    5  A    between atoms: C_15  and  N_16 
ROOT
HETATM    1  C   UNL     1       7.109  -2.359   3.024  1.00  0.00     0.060 A 
HETATM    2  C   UNL     1       7.929  -1.820   4.021  1.00  0.00     0.029 A 
HETATM    3  C   UNL     1       8.426  -2.654   5.009  1.00  0.00     0.019 A 
HETATM    4  C   UNL     1       8.111  -4.000   4.932  1.00  0.00     0.090 A 
HETATM    5  N   UNL     1       7.369  -4.554   3.948  1.00  0.00    -0.351 N 
ATOM      6  HN  UNL     1       7.195  -5.559   3.933  1.00  0.00     0.166 HD
HETATM    7  C   UNL     1       6.860  -3.752   2.980  1.00  0.00     0.125 A 
ENDROOT
BRANCH   1   8
HETATM    8  N   UNL     1       6.434  -1.439   2.181  1.00  0.00    -0.207 NA
HETATM    9  C   UNL     1       5.100  -1.200   2.476  1.00  0.00     0.298 C 
HETATM   10  N   UNL     1       4.584  -0.235   1.639  1.00  0.00    -0.345 N 
HETATM   11  O   UNL     1       4.466  -1.681   3.404  1.00  0.00    -0.254 OA
HETATM   12  H   UNL     1       4.877  -0.345   0.677  1.00  0.00     0.163 HD
HETATM   13  H   UNL     1       6.902  -0.555   2.045  1.00  0.00     0.138 HD
BRANCH  10  14
HETATM   14  C   UNL     1       3.210   0.188   1.831  1.00  0.00     0.155 C 
BRANCH  14  15
HETATM   15  C   UNL     1       2.204  -0.813   1.252  1.00  0.00     0.132 C 
HETATM   16  C   UNL     1       0.771  -0.377   1.531  1.00  0.00     0.041 C 
BRANCH  15  17
HETATM   17  O   UNL     1       2.402  -0.907  -0.165  1.00  0.00    -0.394 OA
HETATM   18  H   UNL     1       2.170  -0.046  -0.553  1.00  0.00     0.210 HD
ENDBRANCH  15  17
ENDBRANCH  14  15
ENDBRANCH  10  14
ENDBRANCH   1   8
BRANCH   7  19
HETATM   19  N   UNL     1       6.134  -4.343   1.964  1.00  0.00    -0.366 N 
HETATM   20  C   UNL     1       6.300  -3.979   0.565  1.00  0.00     0.124 C 
HETATM   21  C   UNL     1       5.819  -5.195  -0.229  1.00  0.00     0.021 C 
HETATM   22  C   UNL     1       5.772  -6.339   0.770  1.00  0.00     0.021 C 
HETATM   23  C   UNL     1       5.563  -5.668   2.122  1.00  0.00     0.124 C 
ENDBRANCH   7  19
TORSDOF 5
