REMARK  7 active torsions:
REMARK  status: ('A' for Active; 'I' for Inactive)
REMARK    1  A    between atoms: O_1  and  C_2 
REMARK    2  A    between atoms: C_2  and  C_3 
REMARK    3  A    between atoms: C_2  and  C_11 
REMARK    4  A    between atoms: C_3  and  O_4 
REMARK    5  A    between atoms: O_4  and  C_5 
REMARK    6  A    between atoms: C_5  and  C_6 
REMARK    7  A    between atoms: C_11  and  N_12 
ROOT
HETATM    1  N   UNL     1       4.443   1.322  -0.544  1.00  0.00    -0.271 N 
HETATM    2  N   UNL     1       5.168   1.341   0.591  1.00  0.00    -0.019 NA
HETATM    3  N   UNL     1       6.442   1.470   0.248  1.00  0.00    -0.282 N 
ATOM      4  HN  UNL     1       7.232   1.513   0.892  1.00  0.00     0.184 HD
HETATM    5  C   UNL     1       6.518   1.535  -1.114  1.00  0.00     0.075 A 
HETATM    6  C   UNL     1       7.617   1.708  -1.964  1.00  0.00     0.058 A 
HETATM    7  C   UNL     1       7.393   1.753  -3.348  1.00  0.00     0.058 A 
HETATM    8 CL   UNL     1       8.770   2.015  -4.364  1.00  0.00    -0.082 Cl
HETATM    9  C   UNL     1       6.101   1.604  -3.873  1.00  0.00     0.058 A 
HETATM   10 CL   UNL     1       5.790   1.633  -5.575  1.00  0.00    -0.082 Cl
HETATM   11  C   UNL     1       4.993   1.435  -3.029  1.00  0.00     0.058 A 
HETATM   12  C   UNL     1       5.244   1.424  -1.654  1.00  0.00     0.078 A 
ENDROOT
BRANCH   1  13
HETATM   13  C   UNL     1       3.003   1.365  -0.477  1.00  0.00     0.180 C 
BRANCH  13  14
HETATM   14  C   UNL     1       2.297   0.027  -0.235  1.00  0.00     0.161 C 
BRANCH  14  15
HETATM   15  O   UNL     1       0.884   0.283  -0.163  1.00  0.00    -0.392 OA
HETATM   16  H   UNL     1       0.445  -0.532   0.140  1.00  0.00     0.210 HD
ENDBRANCH  14  15
BRANCH  14  17
HETATM   17  C   UNL     1       2.548  -1.016  -1.337  1.00  0.00     0.201 C 
BRANCH  17  18
HETATM   18  O   UNL     1       3.911  -1.382  -1.503  1.00  0.00    -0.382 OA
BRANCH  18  19
HETATM   19  C   UNL     1       4.450  -2.110  -0.396  1.00  0.00     0.232 C 
BRANCH  19  20
HETATM   20  C   UNL     1       5.894  -2.308  -0.650  1.00  0.00     0.076 A 
HETATM   21  C   UNL     1       6.663  -2.459  -1.785  1.00  0.00     0.037 A 
HETATM   22  C   UNL     1       8.001  -2.590  -1.348  1.00  0.00     0.027 A 
HETATM   23  C   UNL     1       7.966  -2.515   0.023  1.00  0.00     0.142 A 
HETATM   24  O   UNL     1       6.690  -2.356   0.457  1.00  0.00    -0.325 OA
ENDBRANCH  19  20
ENDBRANCH  18  19
ENDBRANCH  17  18
ENDBRANCH  14  17
ENDBRANCH  13  14
ENDBRANCH   1  13
TORSDOF 7
