REMARK  4 active torsions:
REMARK  status: ('A' for Active; 'I' for Inactive)
REMARK    1  A    between atoms: C_2  and  C_3 
REMARK       I    between atoms: C_2  and  N_16 
REMARK    2  A    between atoms: C_3  and  C_4 
REMARK    3  A    between atoms: C_4  and  N_5 
REMARK       I    between atoms: N_5  and  C_6 
REMARK       I    between atoms: C_6  and  N_8 
REMARK    4  A    between atoms: N_8  and  C_9 
ROOT
HETATM    1  N   UNL     1       1.144  -2.090   1.653  1.00  0.00    -0.342 N 
HETATM    2  C   UNL     1       1.590  -3.395   1.654  1.00  0.00     0.322 C 
HETATM    3  O   UNL     1       2.713  -3.686   2.038  1.00  0.00    -0.247 OA
HETATM    4  N   UNL     1       0.618  -4.255   1.214  1.00  0.00    -0.288 N 
HETATM    5  H   UNL     1       0.465  -1.826   0.952  1.00  0.00     0.164 HD
HETATM    6  H   UNL     1      -0.337  -3.931   1.217  1.00  0.00     0.172 HD
ENDROOT
BRANCH   1   7
HETATM    7  C   UNL     1       2.005  -1.012   2.118  1.00  0.00     0.133 C 
BRANCH   7   8
HETATM    8  C   UNL     1       3.032  -0.568   1.081  1.00  0.00     0.122 C 
BRANCH   8   9
HETATM    9  C   UNL     1       2.359   0.005  -0.152  1.00  0.00     0.221 C 
HETATM   10  O   UNL     1       1.146   0.212  -0.191  1.00  0.00    -0.273 OA
HETATM   11  N   UNL     1       3.173   0.254  -1.234  1.00  0.00    -0.352 N 
HETATM   12  C   UNL     1       2.615   0.692  -2.503  1.00  0.00     0.126 C 
HETATM   13  C   UNL     1       4.617   0.409  -1.220  1.00  0.00     0.126 C 
HETATM   14  C   UNL     1       3.788   1.285  -3.275  1.00  0.00     0.021 C 
HETATM   15  C   UNL     1       4.839   1.547  -2.202  1.00  0.00     0.021 C 
ENDBRANCH   8   9
ENDBRANCH   7   8
ENDBRANCH   1   7
BRANCH   4  16
HETATM   16  C   UNL     1       0.751  -5.621   1.128  1.00  0.00     0.168 A 
HETATM   17  N   UNL     1      -0.279  -6.433   1.013  1.00  0.00    -0.279 N 
HETATM   18  N   UNL     1       0.105  -7.761   0.973  1.00  0.00    -0.303 N 
ATOM     19  HN  UNL     1      -1.248  -6.119   0.960  1.00  0.00     0.189 HD
HETATM   20  C   UNL     1       1.413  -7.887   1.020  1.00  0.00     0.160 A 
ATOM     21  HN  UNL     1      -0.545  -8.545   0.914  1.00  0.00     0.186 HD
HETATM   22  S   UNL     1       2.267  -6.407   1.098  1.00  0.00    -0.046 SA
ENDBRANCH   4  16
TORSDOF 4
