REMARK  4 active torsions:
REMARK  status: ('A' for Active; 'I' for Inactive)
REMARK    1  A    between atoms: C_5  and  C_6 
REMARK    2  A    between atoms: C_6  and  C_7 
REMARK    3  A    between atoms: C_7  and  N_8 
REMARK       I    between atoms: N_8  and  C_9 
REMARK    4  A    between atoms: C_9  and  C_11 
ROOT
HETATM    1  C   UNL     1       5.693   1.528   0.025  1.00  0.00     0.077 C 
ENDROOT
BRANCH   1   2
HETATM    2  C   UNL     1       4.582   0.528   0.066  1.00  0.00     0.018 A 
HETATM    3  N   UNL     1       4.748  -0.705  -0.546  1.00  0.00    -0.357 N 
HETATM    4  C   UNL     1       3.667  -1.438  -0.389  1.00  0.00     0.046 A 
ATOM      5  HN  UNL     1       5.587  -1.001  -1.046  1.00  0.00     0.166 HD
HETATM    6  C   UNL     1       3.512  -2.829  -0.893  1.00  0.00     0.076 C 
HETATM    7  S   UNL     1       2.380  -0.687   0.465  1.00  0.00    -0.087 SA
HETATM    8  C   UNL     1       3.346   0.713   0.658  1.00  0.00     0.076 A 
ENDBRANCH   1   2
BRANCH   1   9
HETATM    9  C   UNL     1       7.083   0.889   0.056  1.00  0.00     0.128 C 
BRANCH   9  10
HETATM   10  N   UNL     1       8.157   1.870   0.043  1.00  0.00    -0.360 N 
HETATM   11  C   UNL     1       8.418   2.657   1.136  1.00  0.00     0.221 C 
HETATM   12  O   UNL     1       7.742   2.650   2.157  1.00  0.00    -0.273 OA
HETATM   13  H   UNL     1       8.809   1.851  -0.726  1.00  0.00     0.162 HD
BRANCH  11  14
HETATM   14  C   UNL     1       9.600   3.556   1.062  1.00  0.00     0.078 A 
HETATM   15  C   UNL     1      10.556   3.690  -0.097  1.00  0.00     0.015 A 
HETATM   16  C   UNL     1      10.979   2.941   1.134  1.00  0.00     0.015 A 
ENDBRANCH  11  14
ENDBRANCH   9  10
ENDBRANCH   1   9
TORSDOF 4
