REMARK  6 active torsions:
REMARK  status: ('A' for Active; 'I' for Inactive)
REMARK    1  A    between atoms: C_7  and  S_8 
REMARK    2  A    between atoms: S_8  and  C_9 
REMARK    3  A    between atoms: C_9  and  C_10 
REMARK    4  A    between atoms: C_10  and  C_11 
REMARK    5  A    between atoms: N_16  and  C_17 
REMARK    6  A    between atoms: C_17  and  C_18 
REMARK       I    between atoms: C_18  and  N_20 
ROOT
HETATM    1  C   UNL     1       1.482  -0.137  -0.538  1.00  0.00     0.091 C 
HETATM    2  C   UNL     1       2.922  -0.132  -0.192  1.00  0.00     0.096 A 
HETATM    3  N   UNL     1       3.552  -1.105   0.433  1.00  0.00    -0.287 N 
ATOM      4  HN  UNL     1       3.129  -1.967   0.776  1.00  0.00     0.188 HD
HETATM    5  N   UNL     1       4.872  -0.761   0.544  1.00  0.00    -0.278 N 
ATOM      6  HN  UNL     1       5.603  -1.322   0.983  1.00  0.00     0.189 HD
HETATM    7  C   UNL     1       5.033   0.415  -0.012  1.00  0.00     0.163 A 
HETATM    8  N   UNL     1       3.827   0.868  -0.486  1.00  0.00    -0.306 N 
ENDROOT
BRANCH   7   9
HETATM    9  S   UNL     1       6.542   1.247  -0.161  1.00  0.00    -0.092 SA
BRANCH   9  10
HETATM   10  C   UNL     1       7.710  -0.153   0.068  1.00  0.00     0.083 C 
BRANCH  10  11
HETATM   11  C   UNL     1       9.159   0.342   0.074  1.00  0.00     0.015 C 
BRANCH  11  12
HETATM   12  C   UNL     1      10.201  -0.790   0.032  1.00  0.00    -0.014 C 
HETATM   13  C   UNL     1      10.212  -1.730   1.245  1.00  0.00     0.005 C 
HETATM   14  C   UNL     1      11.674  -2.144   1.456  1.00  0.00     0.000 C 
HETATM   15  C   UNL     1      12.479  -1.447   0.367  1.00  0.00     0.000 C 
HETATM   16  C   UNL     1      11.630  -0.244  -0.009  1.00  0.00     0.005 C 
ENDBRANCH  11  12
ENDBRANCH  10  11
ENDBRANCH   9  10
ENDBRANCH   7   9
BRANCH   8  17
HETATM   17  C   UNL     1       3.531   2.143  -1.108  1.00  0.00     0.235 C 
BRANCH  17  18
HETATM   18  C   UNL     1       3.736   2.212  -2.609  1.00  0.00     0.233 C 
HETATM   19  O   UNL     1       3.607   3.276  -3.222  1.00  0.00    -0.272 OA
HETATM   20  N   UNL     1       4.010   1.079  -3.307  1.00  0.00    -0.369 N 
HETATM   21  H   UNL     1       4.300   0.207  -2.889  1.00  0.00     0.159 HD
HETATM   22  H   UNL     1       4.182   1.191  -4.300  1.00  0.00     0.159 HD
ENDBRANCH  17  18
ENDBRANCH   8  17
TORSDOF 6
