REMARK  6 active torsions:
REMARK  status: ('A' for Active; 'I' for Inactive)
REMARK    1  A    between atoms: C_2  and  O_3 
REMARK    2  A    between atoms: O_3  and  C_4 
REMARK    3  A    between atoms: C_6  and  N_7 
REMARK    4  A    between atoms: N_7  and  C_8 
REMARK    5  A    between atoms: C_8  and  C_10 
REMARK    6  A    between atoms: C_10  and  N_11 
ROOT
HETATM    1  N   UNL     1       7.119   1.834   3.325  1.00  0.00     0.095 N 
HETATM    2  H   UNL     1       7.002   1.786   4.340  1.00  0.00     0.317 HD
ENDROOT
BRANCH   1   3
HETATM    3  C   UNL     1       6.285   0.838   2.656  1.00  0.00     0.234 C 
HETATM    4  C   UNL     1       6.228   0.935   1.117  1.00  0.00     0.069 C 
HETATM    5  C   UNL     1       4.721   0.588   1.250  1.00  0.00     0.134 C 
HETATM    6  C   UNL     1       4.785   1.358   2.625  1.00  0.00     0.017 C 
HETATM    7  C   UNL     1       3.912   0.852   3.772  1.00  0.00     0.014 C 
HETATM    8  C   UNL     1       4.480   2.863   2.540  1.00  0.00     0.014 C 
HETATM    9  C   UNL     1       3.638   2.079   4.653  1.00  0.00     0.001 C 
HETATM   10  C   UNL     1       4.318   3.272   3.994  1.00  0.00     0.001 C 
BRANCH   5  11
HETATM   11  O   UNL     1       3.816   1.116   0.253  1.00  0.00    -0.385 OA
BRANCH  11  12
HETATM   12  C   UNL     1       4.100   0.770  -1.098  1.00  0.00     0.163 C 
HETATM   13  C   UNL     1       2.950   1.225  -1.971  1.00  0.00     0.033 C 
ENDBRANCH  11  12
ENDBRANCH   5  11
ENDBRANCH   1   3
BRANCH   1  14
HETATM   14  C   UNL     1       8.559   1.811   3.019  1.00  0.00     0.236 C 
HETATM   15  C   UNL     1       9.207   0.440   3.207  1.00  0.00     0.044 C 
BRANCH  14  16
HETATM   16  C   UNL     1       8.951   2.465   1.675  1.00  0.00     0.184 C 
BRANCH  16  17
HETATM   17  N   UNL     1       8.340   3.760   1.434  1.00  0.00    -0.285 N 
HETATM   18  C   UNL     1       8.129   4.774   2.312  1.00  0.00     0.201 A 
HETATM   19  N   UNL     1       7.486   5.753   1.718  1.00  0.00    -0.346 N 
HETATM   20  C   UNL     1       7.334   5.282   0.446  1.00  0.00     0.198 A 
ATOM     21  HN  UNL     1       7.177   6.643   2.109  1.00  0.00     0.167 HD
HETATM   22  N   UNL     1       7.889   4.090   0.208  1.00  0.00    -0.293 N 
ATOM     23  HN  UNL     1       7.954   3.570  -0.667  1.00  0.00     0.188 HD
ENDBRANCH  16  17
ENDBRANCH  14  16
ENDBRANCH   1  14
TORSDOF 6
