REMARK  6 active torsions:
REMARK  status: ('A' for Active; 'I' for Inactive)
REMARK    1  A    between atoms: C_2  and  O_3 
REMARK    2  A    between atoms: O_3  and  C_4 
REMARK    3  A    between atoms: C_4  and  C_5 
REMARK    4  A    between atoms: C_5  and  O_6 
REMARK    5  A    between atoms: C_5  and  C_7 
REMARK    6  A    between atoms: C_7  and  N_8 
ROOT
HETATM    1  N   UNL     1       6.927   2.004   3.703  1.00  0.00    -0.271 N 
HETATM    2  N   UNL     1       7.101   3.334   3.813  1.00  0.00    -0.019 NA
HETATM    3  N   UNL     1       7.449   3.588   5.069  1.00  0.00    -0.282 N 
ATOM      4  HN  UNL     1       7.627   4.511   5.465  1.00  0.00     0.184 HD
HETATM    5  C   UNL     1       7.528   2.400   5.739  1.00  0.00     0.075 A 
HETATM    6  C   UNL     1       7.855   2.120   7.071  1.00  0.00     0.058 A 
HETATM    7  C   UNL     1       7.872   0.783   7.491  1.00  0.00     0.058 A 
HETATM    8 CL   UNL     1       8.280   0.486   9.145  1.00  0.00    -0.082 Cl
HETATM    9  C   UNL     1       7.570  -0.255   6.595  1.00  0.00     0.058 A 
HETATM   10 CL   UNL     1       7.605  -1.917   7.077  1.00  0.00    -0.082 Cl
HETATM   11  C   UNL     1       7.223   0.014   5.260  1.00  0.00     0.058 A 
HETATM   12  C   UNL     1       7.221   1.355   4.875  1.00  0.00     0.078 A 
ENDROOT
BRANCH   1  13
HETATM   13  C   UNL     1       6.418   1.457   2.469  1.00  0.00     0.180 C 
BRANCH  13  14
HETATM   14  C   UNL     1       4.892   1.397   2.415  1.00  0.00     0.161 C 
BRANCH  14  15
HETATM   15  C   UNL     1       4.236   2.777   2.583  1.00  0.00     0.200 C 
BRANCH  15  16
HETATM   16  O   UNL     1       2.810   2.629   2.511  1.00  0.00    -0.389 OA
BRANCH  16  17
HETATM   17  C   UNL     1       2.162   3.883   2.747  1.00  0.00     0.163 C 
HETATM   18  C   UNL     1       0.661   3.675   2.774  1.00  0.00     0.033 C 
ENDBRANCH  16  17
ENDBRANCH  15  16
ENDBRANCH  14  15
BRANCH  14  19
HETATM   19  O   UNL     1       4.539   0.843   1.136  1.00  0.00    -0.392 OA
HETATM   20  H   UNL     1       3.703   1.270   0.870  1.00  0.00     0.210 HD
ENDBRANCH  14  19
ENDBRANCH  13  14
ENDBRANCH   1  13
TORSDOF 6
