REMARK  4 active torsions:
REMARK  status: ('A' for Active; 'I' for Inactive)
REMARK    1  A    between atoms: C_2  and  C_5 
REMARK    2  A    between atoms: N_9  and  C_10 
REMARK    3  A    between atoms: C_10  and  C_11 
REMARK       I    between atoms: C_11  and  N_13 
REMARK    4  A    between atoms: N_13  and  C_14 
ROOT
HETATM    1  C   UNL     1       3.779  -3.686   2.875  1.00  0.00     0.236 C 
HETATM    2  O   UNL     1       3.532  -3.425   1.698  1.00  0.00    -0.272 OA
HETATM    3  N   UNL     1       3.762  -4.977   3.368  1.00  0.00    -0.347 N 
HETATM    4  H   UNL     1       4.204  -5.141   4.267  1.00  0.00     0.163 HD
ENDROOT
BRANCH   1   5
HETATM    5  C   UNL     1       3.997  -2.579   3.916  1.00  0.00     0.234 C 
BRANCH   5   6
HETATM    6  N   UNL     1       2.702  -2.075   4.379  1.00  0.00    -0.315 N 
HETATM    7  C   UNL     1       2.044  -1.114   3.631  1.00  0.00     0.095 C 
HETATM    8  C   UNL     1       0.831  -0.679   3.988  1.00  0.00     0.018 C 
HETATM    9  C   UNL     1       0.158  -1.292   5.103  1.00  0.00     0.023 C 
HETATM   10  C   UNL     1       0.759  -2.234   5.854  1.00  0.00     0.115 C 
HETATM   11  C   UNL     1       2.163  -2.613   5.549  1.00  0.00     0.263 C 
HETATM   12  O   UNL     1       2.799  -3.366   6.279  1.00  0.00    -0.267 OA
BRANCH  10  13
HETATM   13  C   UNL     1       0.055  -2.979   6.927  1.00  0.00     0.422 C 
HETATM   14  F   UNL     1       0.761  -3.943   7.561  1.00  0.00    -0.166 F 
HETATM   15  F   UNL     1      -1.051  -3.601   6.423  1.00  0.00    -0.166 F 
HETATM   16  F   UNL     1      -0.408  -2.140   7.894  1.00  0.00    -0.166 F 
ENDBRANCH  10  13
ENDBRANCH   5   6
ENDBRANCH   1   5
BRANCH   3  17
HETATM   17  C   UNL     1       3.669  -6.114   2.455  1.00  0.00     0.170 C 
HETATM   18  C   UNL     1       2.881  -7.272   3.093  1.00  0.00     0.034 C 
HETATM   19  C   UNL     1       2.380  -8.274   2.046  1.00  0.00     0.004 C 
HETATM   20  C   UNL     1       3.390  -9.320   1.553  1.00  0.00     0.015 C 
HETATM   21  C   UNL     1       4.869  -8.928   1.517  1.00  0.00     0.095 C 
HETATM   22  N   UNL     1       5.087  -7.565   1.077  1.00  0.00    -0.261 NA
HETATM   23  C   UNL     1       5.078  -6.608   2.082  1.00  0.00     0.220 C 
HETATM   24  H   UNL     1       4.519  -7.327   0.273  1.00  0.00     0.130 HD
HETATM   25  O   UNL     1       6.090  -6.302   2.707  1.00  0.00    -0.278 OA
ENDBRANCH   3  17
TORSDOF 4
