REMARK  5 active torsions:
REMARK  status: ('A' for Active; 'I' for Inactive)
REMARK    1  A    between atoms: O_2  and  C_3 
REMARK    2  A    between atoms: C_6  and  N_7 
REMARK       I    between atoms: N_7  and  C_8 
REMARK       I    between atoms: C_8  and  N_10 
REMARK    3  A    between atoms: N_10  and  C_11 
REMARK    4  A    between atoms: C_11  and  C_12 
REMARK    5  A    between atoms: C_12  and  C_13 
REMARK       I    between atoms: C_13  and  N_15 
ROOT
HETATM    1  N   UNL     1       3.819  -3.398   8.004  1.00  0.00    -0.308 N 
HETATM    2  C   UNL     1       5.037  -2.849   7.671  1.00  0.00     0.320 C 
HETATM    3  O   UNL     1       5.358  -1.674   7.803  1.00  0.00    -0.247 OA
HETATM    4  N   UNL     1       5.898  -3.764   7.118  1.00  0.00    -0.342 N 
HETATM    5  H   UNL     1       3.768  -4.405   8.049  1.00  0.00     0.170 HD
HETATM    6  H   UNL     1       5.775  -4.749   7.312  1.00  0.00     0.164 HD
ENDROOT
BRANCH   4   7
HETATM    7  C   UNL     1       7.232  -3.358   6.706  1.00  0.00     0.133 C 
BRANCH   7   8
HETATM    8  C   UNL     1       8.233  -3.317   7.858  1.00  0.00     0.122 C 
BRANCH   8   9
HETATM    9  C   UNL     1       8.525  -4.706   8.398  1.00  0.00     0.221 C 
HETATM   10  O   UNL     1       7.916  -5.692   7.971  1.00  0.00    -0.273 OA
HETATM   11  N   UNL     1       9.491  -4.817   9.380  1.00  0.00    -0.347 N 
HETATM   12  C   UNL     1      10.260  -3.724   9.992  1.00  0.00     0.157 C 
HETATM   13  C   UNL     1       9.840  -6.139   9.907  1.00  0.00     0.157 C 
HETATM   14  C   UNL     1      11.771  -4.025   9.909  1.00  0.00     0.136 C 
HETATM   15  C   UNL     1      12.583  -2.991  10.675  1.00  0.00     0.041 C 
HETATM   16  O   UNL     1      12.070  -5.316  10.475  1.00  0.00    -0.378 OA
HETATM   17  C   UNL     1      11.356  -6.365   9.792  1.00  0.00     0.136 C 
HETATM   18  C   UNL     1      11.759  -7.693  10.414  1.00  0.00     0.041 C 
ENDBRANCH   8   9
ENDBRANCH   7   8
ENDBRANCH   4   7
BRANCH   1  19
HETATM   19  C   UNL     1       2.678  -2.663   8.400  1.00  0.00     0.051 A 
HETATM   20  C   UNL     1       2.551  -1.290   8.195  1.00  0.00     0.035 A 
HETATM   21  C   UNL     1       1.386  -0.630   8.573  1.00  0.00     0.058 A 
HETATM   22  C   UNL     1       0.367  -1.366   9.148  1.00  0.00     0.141 A 
HETATM   23  N   UNL     1       0.440  -2.696   9.373  1.00  0.00    -0.345 N 
HETATM   24  C   UNL     1       1.590  -3.310   8.986  1.00  0.00     0.119 A 
ATOM     25  HN  UNL     1      -0.325  -3.211   9.809  1.00  0.00     0.167 HD
BRANCH  22  26
HETATM   26  O   UNL     1      -0.780  -0.661   9.449  1.00  0.00    -0.341 OA
HETATM   27  C   UNL     1      -1.792  -1.448  10.059  1.00  0.00     0.211 C 
ENDBRANCH  22  26
ENDBRANCH   1  19
TORSDOF 5
