REMARK  6 active torsions:
REMARK  status: ('A' for Active; 'I' for Inactive)
REMARK    1  A    between atoms: N_11  and  C_12 
REMARK    2  A    between atoms: C_12  and  C_13 
REMARK    3  A    between atoms: C_13  and  O_14 
REMARK    4  A    between atoms: C_13  and  C_15 
REMARK    5  A    between atoms: C_15  and  O_16 
REMARK    6  A    between atoms: O_16  and  C_17 
ROOT
HETATM    1  C   UNL     1       2.043  -6.259  -1.351  1.00  0.00     0.069 A 
HETATM    2  C   UNL     1       0.926  -6.203  -2.188  1.00  0.00     0.038 A 
HETATM    3  C   UNL     1       0.175  -7.353  -2.454  1.00  0.00     0.025 A 
HETATM    4  C   UNL     1       0.552  -8.577  -1.896  1.00  0.00     0.044 A 
HETATM    5  C   UNL     1      -0.218  -9.759  -2.159  1.00  0.00     0.099 C 
HETATM    6  N   UNL     1      -0.842 -10.716  -2.367  1.00  0.00    -0.191 NA
HETATM    7  C   UNL     1       1.686  -8.641  -1.080  1.00  0.00     0.025 A 
HETATM    8  C   UNL     1       2.431  -7.485  -0.809  1.00  0.00     0.038 A 
ENDROOT
BRANCH   1   9
HETATM    9  O   UNL     1       2.697  -5.070  -1.176  1.00  0.00    -0.349 OA
BRANCH   9  10
HETATM   10  C   UNL     1       3.420  -4.922   0.046  1.00  0.00     0.209 C 
BRANCH  10  11
HETATM   11  C   UNL     1       4.028  -3.510   0.122  1.00  0.00     0.160 C 
BRANCH  11  12
HETATM   12  C   UNL     1       2.946  -2.421   0.060  1.00  0.00     0.164 C 
BRANCH  12  13
HETATM   13  N   UNL     1       3.483  -1.074  -0.072  1.00  0.00    -0.332 N 
HETATM   14  C   UNL     1       3.747  -0.420  -1.259  1.00  0.00     0.080 A 
HETATM   15  C   UNL     1       3.603  -1.032  -2.605  1.00  0.00     0.089 C 
HETATM   16  N   UNL     1       4.131   0.821  -1.037  1.00  0.00    -0.344 N 
HETATM   17  C   UNL     1       4.114   0.981   0.323  1.00  0.00     0.060 A 
ATOM     18  HN  UNL     1       4.388   1.519  -1.735  1.00  0.00     0.167 HD
HETATM   19  C   UNL     1       4.424   2.118   1.085  1.00  0.00     0.032 A 
HETATM   20  C   UNL     1       3.715  -0.190   0.961  1.00  0.00     0.062 A 
HETATM   21  C   UNL     1       4.329   2.045   2.479  1.00  0.00     0.002 A 
HETATM   22  C   UNL     1       3.935   0.861   3.101  1.00  0.00     0.002 A 
HETATM   23  C   UNL     1       3.616  -0.283   2.357  1.00  0.00     0.032 A 
ENDBRANCH  12  13
ENDBRANCH  11  12
BRANCH  11  24
HETATM   24  O   UNL     1       4.803  -3.419   1.323  1.00  0.00    -0.392 OA
HETATM   25  H   UNL     1       4.205  -3.350   2.086  1.00  0.00     0.210 HD
ENDBRANCH  11  24
ENDBRANCH  10  11
ENDBRANCH   9  10
ENDBRANCH   1   9
TORSDOF 6
