REMARK  3 active torsions:
REMARK  status: ('A' for Active; 'I' for Inactive)
REMARK       I    between atoms: C_2  and  N_3 
REMARK       I    between atoms: C_2  and  N_11 
REMARK    1  A    between atoms: N_3  and  C_4 
REMARK    2  A    between atoms: N_11  and  C_12 
REMARK    3  A    between atoms: C_18  and  N_19 
ROOT
HETATM    1  O   UNL     1       2.882   2.807  -1.753  1.00  0.00    -0.247 OA
HETATM    2  C   UNL     1       2.356   1.868  -1.157  1.00  0.00     0.321 C 
HETATM    3  N   UNL     1       1.047   1.527  -1.424  1.00  0.00    -0.337 N 
HETATM    4  N   UNL     1       2.964   1.054  -0.230  1.00  0.00    -0.306 N 
HETATM    5  H   UNL     1       0.588   0.856  -0.823  1.00  0.00     0.164 HD
HETATM    6  H   UNL     1       2.496   0.215   0.074  1.00  0.00     0.171 HD
ENDROOT
BRANCH   4   7
HETATM    7  C   UNL     1       4.333   1.140   0.154  1.00  0.00     0.075 A 
HETATM    8  C   UNL     1       5.063   2.318  -0.023  1.00  0.00     0.034 A 
HETATM    9  C   UNL     1       6.407   2.367   0.325  1.00  0.00     0.019 A 
HETATM   10  C   UNL     1       6.976   1.229   0.852  1.00  0.00     0.089 A 
HETATM   11  N   UNL     1       6.293   0.090   1.107  1.00  0.00    -0.355 N 
HETATM   12  C   UNL     1       4.975   0.041   0.779  1.00  0.00     0.109 A 
ATOM     13  HN  UNL     1       6.755  -0.712   1.535  1.00  0.00     0.166 HD
BRANCH  12  14
HETATM   14  N   UNL     1       4.238  -1.070   1.178  1.00  0.00    -0.267 NA
HETATM   15  C   UNL     1       4.807  -1.875   2.266  1.00  0.00     0.097 C 
HETATM   16  C   UNL     1       3.815  -3.045   2.363  1.00  0.00     0.016 C 
HETATM   17  C   UNL     1       2.995  -2.970   1.068  1.00  0.00     0.016 C 
HETATM   18  C   UNL     1       3.810  -2.035   0.175  1.00  0.00     0.097 C 
ENDBRANCH  12  14
ENDBRANCH   4   7
BRANCH   3  19
HETATM   19  C   UNL     1       0.240   2.325  -2.353  1.00  0.00     0.101 C 
HETATM   20  C   UNL     1       0.804   2.323  -3.797  1.00  0.00     0.041 C 
HETATM   21  C   UNL     1       0.776   3.725  -4.396  1.00  0.00     0.142 C 
HETATM   22  S   UNL     1      -0.199   4.735  -3.321  1.00  0.00     0.146 S 
HETATM   23  O   UNL     1       0.443   6.018  -3.141  1.00  0.00    -0.228 OA
HETATM   24  O   UNL     1      -1.589   4.615  -3.729  1.00  0.00    -0.228 OA
HETATM   25  C   UNL     1       0.015   3.755  -1.865  1.00  0.00     0.165 C 
ENDBRANCH   3  19
TORSDOF 3
