REMARK  4 active torsions:
REMARK  status: ('A' for Active; 'I' for Inactive)
REMARK    1  A    between atoms: C_4  and  C_6 
REMARK    2  A    between atoms: C_4  and  C_9 
REMARK    3  A    between atoms: C_6  and  O_8 
REMARK    4  A    between atoms: C_12  and  N_13 
ROOT
HETATM    1  C   UNL     2       3.086   1.621   0.406  1.00  0.00    -0.024 A 
HETATM    2  C   UNL     2       3.957   2.167   1.376  1.00  0.00     0.013 A 
HETATM    3  C   UNL     2       4.276   3.525   1.365  1.00  0.00     0.048 A 
HETATM    4  C   UNL     2       3.725   4.353   0.384  1.00  0.00     0.098 A 
HETATM    5  N   UNL     2       2.898   3.825  -0.553  1.00  0.00    -0.352 N 
ATOM      6  HN  UNL     2       2.507   4.438  -1.268  1.00  0.00     0.166 HD
HETATM    7  C   UNL     2       2.574   2.505  -0.569  1.00  0.00     0.098 A 
ENDROOT
BRANCH   1   8
HETATM    8  C   UNL     2       2.677   0.128   0.380  1.00  0.00     0.066 C 
HETATM    9  C   UNL     2       1.139   0.046   0.507  1.00  0.00     0.031 C 
HETATM   10  C   UNL     2       3.285  -0.668   1.559  1.00  0.00     0.031 C 
BRANCH   8  11
HETATM   11  C   UNL     2       3.135  -0.536  -0.920  1.00  0.00     0.152 C 
HETATM   12  O   UNL     2       3.777   0.092  -1.750  1.00  0.00    -0.649 OA
BRANCH  11  13
HETATM   13  O   UNL     2       2.861  -1.836  -1.178  1.00  0.00    -0.776 OA
HETATM   14  H   UNL     2       2.363  -2.399  -0.570  1.00  0.00     0.167 HD
ENDBRANCH  11  13
ENDBRANCH   8  11
ENDBRANCH   1   8
BRANCH   4  15
HETATM   15  N   UNL     2       4.016   5.737   0.369  1.00  0.00    -0.385 N 
HETATM   16  H   UNL     2       4.634   6.156   1.079  1.00  0.00     0.157 HD
HETATM   17  H   UNL     2       3.591   6.348  -0.344  1.00  0.00     0.157 HD
ENDBRANCH   4  15
TORSDOF 4
