REMARK  6 active torsions:
REMARK  status: ('A' for Active; 'I' for Inactive)
REMARK    1  A    between atoms: N_1  and  C_4 
REMARK    2  A    between atoms: N_10  and  N_16 
REMARK    3  A    between atoms: N_10  and  N_13 
REMARK    4  A    between atoms: C_11  and  N_16 
REMARK    5  A    between atoms: C_12  and  C_21 
REMARK    6  A    between atoms: C_21  and  O_22 
ROOT
HETATM    1  C   UNL     1      -1.406  -2.507  -0.061  1.00  0.00     0.234 C 
HETATM    2  O   UNL     1      -2.185  -2.673   1.138  1.00  0.00    -0.357 OA
HETATM    3  C   UNL     1      -0.581  -3.780  -0.181  1.00  0.00     0.084 C 
HETATM    4  C   UNL     1      -1.575  -4.834   0.266  1.00  0.00     0.149 C 
HETATM    5  C   UNL     1      -2.421  -4.091   1.313  1.00  0.00     0.172 C 
ENDROOT
BRANCH   1   6
HETATM    6  N   UNL     1      -0.605  -1.288   0.000  1.00  0.00    -0.282 N 
HETATM    7  C   UNL     1      -0.281  -0.688  -1.207  1.00  0.00     0.331 A 
HETATM    8  N   UNL     1       0.459   0.461  -1.121  1.00  0.00    -0.275 N 
HETATM    9  O   UNL     1      -0.606  -1.130  -2.308  1.00  0.00    -0.246 OA
HETATM   10  C   UNL     1       1.006   0.981   0.015  1.00  0.00     0.256 A 
HETATM   11  H   UNL     1       0.698   0.910  -1.991  1.00  0.00     0.173 HD
HETATM   12  C   UNL     1       0.662   0.284   1.275  1.00  0.00     0.022 A 
HETATM   13  O   UNL     1       1.746   1.958  -0.006  1.00  0.00    -0.267 OA
HETATM   14  C   UNL     1      -0.130  -0.792   1.199  1.00  0.00     0.110 A 
HETATM   15  C   UNL     1       1.231   0.830   2.543  1.00  0.00     0.056 C 
ENDBRANCH   1   6
BRANCH   5  16
HETATM   16  C   UNL     1      -2.052  -4.454   2.754  1.00  0.00     0.198 C 
BRANCH  16  17
HETATM   17  O   UNL     1      -0.669  -4.217   3.003  1.00  0.00    -0.398 OA
HETATM   18  H   UNL     1      -0.539  -3.260   2.890  1.00  0.00     0.209 HD
ENDBRANCH  16  17
ENDBRANCH   5  16
BRANCH   4  19
HETATM   19  N   UNL     1      -2.415  -5.196  -0.895  1.00  0.00    -0.245 N 
ATOM     20  HN  UNL     1      -2.608  -4.535  -1.647  1.00  0.00     0.197 HD
BRANCH  19  21
HETATM   21  N   UNL     1      -2.874  -6.352  -0.903  1.00  0.00    -0.248 NA
BRANCH  21  22
HETATM   22  N   UNL     1      -3.299  -7.410  -0.897  1.00  0.00    -0.261 N 
ATOM     23  HN2 UNL     1      -3.141  -6.542  -0.386  1.00  0.00     0.193 HD
ATOM     24  HN1 UNL     1      -3.675  -8.358  -0.904  1.00  0.00     0.193 HD
ENDBRANCH  21  22
ENDBRANCH  19  21
ENDBRANCH   4  19
TORSDOF 6
