REMARK  7 active torsions:
REMARK  status: ('A' for Active; 'I' for Inactive)
REMARK    1  A    between atoms: C_7  and  O_8 
REMARK    2  A    between atoms: O_8  and  C_9 
REMARK    3  A    between atoms: C_9  and  C_10 
REMARK    4  A    between atoms: C_10  and  N_11 
REMARK    5  A    between atoms: N_11  and  C_12 
REMARK    6  A    between atoms: C_12  and  C_13 
REMARK    7  A    between atoms: C_13  and  N_14 
ROOT
HETATM    1  N   UNL     1       2.927  -3.071   4.184  1.00  0.00     0.087 N 
HETATM    2  H   UNL     1       2.642  -2.151   4.526  1.00  0.00     0.316 HD
ENDROOT
BRANCH   1   3
HETATM    3  C   UNL     1       2.435  -3.232   2.809  1.00  0.00     0.295 C 
BRANCH   3   4
HETATM    4  C   UNL     1       3.036  -2.164   1.905  1.00  0.00     0.198 C 
BRANCH   4   5
HETATM    5  O   UNL     1       2.474  -2.295   0.598  1.00  0.00    -0.384 OA
BRANCH   5   6
HETATM    6  C   UNL     1       3.020  -1.361  -0.338  1.00  0.00     0.125 C 
HETATM    7  C   UNL     1       2.711   0.101   0.052  1.00  0.00     0.010 C 
HETATM    8  C   UNL     1       1.224   0.325   0.362  1.00  0.00     0.012 C 
HETATM    9  C   UNL     1       3.228   1.059  -1.024  1.00  0.00     0.007 C 
HETATM   10  C   UNL     1       2.691   0.727  -2.412  1.00  0.00     0.001 C 
HETATM   11  C   UNL     1       2.955  -0.728  -2.791  1.00  0.00     0.002 C 
HETATM   12  C   UNL     1       2.464  -1.704  -1.725  1.00  0.00     0.032 C 
ENDBRANCH   5   6
ENDBRANCH   4   5
ENDBRANCH   3   4
ENDBRANCH   1   3
BRANCH   1  13
HETATM   13  C   UNL     1       2.363  -4.092   5.080  1.00  0.00     0.291 C 
BRANCH  13  14
HETATM   14  C   UNL     1       2.785  -5.513   4.713  1.00  0.00     0.178 C 
BRANCH  14  15
HETATM   15  N   UNL     1       2.254  -6.473   5.654  1.00  0.00    -0.302 N 
HETATM   16  C   UNL     1       2.884  -6.971   6.753  1.00  0.00     0.118 A 
HETATM   17  C   UNL     1       2.010  -7.868   7.325  1.00  0.00    -0.028 A 
HETATM   18  C   UNL     1       2.207  -8.692   8.535  1.00  0.00     0.051 C 
HETATM   19  C   UNL     1       0.876  -7.828   6.484  1.00  0.00     0.115 A 
HETATM   20  N   UNL     1       1.015  -6.972   5.470  1.00  0.00    -0.310 N 
ATOM     21  HN  UNL     1       0.346  -6.749   4.733  1.00  0.00     0.186 HD
ENDBRANCH  14  15
ENDBRANCH  13  14
ENDBRANCH   1  13
TORSDOF 7
