REMARK  4 active torsions:
REMARK  status: ('A' for Active; 'I' for Inactive)
REMARK    1  A    between atoms: C_2  and  C_3 
REMARK    2  A    between atoms: C_3  and  N_4 
REMARK    3  A    between atoms: C_7  and  N_10 
REMARK       I    between atoms: N_10  and  C_11 
REMARK       I    between atoms: C_11  and  N_13 
REMARK    4  A    between atoms: N_13  and  C_14 
ROOT
HETATM    1  N   UNL     1       6.667  -1.447  -4.151  1.00  0.00    -0.338 N 
HETATM    2  C   UNL     1       7.242  -0.966  -5.304  1.00  0.00     0.322 C 
HETATM    3  O   UNL     1       6.592  -0.448  -6.205  1.00  0.00    -0.247 OA
HETATM    4  N   UNL     1       8.594  -1.199  -5.322  1.00  0.00    -0.294 N 
HETATM    5  H   UNL     1       7.247  -1.377  -3.326  1.00  0.00     0.164 HD
HETATM    6  H   UNL     1       8.879  -2.069  -4.895  1.00  0.00     0.172 HD
ENDROOT
BRANCH   1   7
HETATM    7  C   UNL     1       5.216  -1.414  -3.977  1.00  0.00     0.089 C 
HETATM    8  C   UNL     1       4.708  -0.023  -3.576  1.00  0.00     0.055 C 
HETATM    9  C   UNL     1       4.944   0.281  -2.095  1.00  0.00     0.274 C 
HETATM   10  N   UNL     1       4.466  -0.770  -1.179  1.00  0.00     0.088 N 
HETATM   11  C   UNL     1       5.068  -2.059  -1.539  1.00  0.00     0.274 C 
HETATM   12  C   UNL     1       4.777  -2.483  -2.977  1.00  0.00     0.055 C 
BRANCH  10  13
HETATM   13  C   UNL     1       2.993  -0.784  -1.093  1.00  0.00     0.272 C 
BRANCH  13  14
HETATM   14  C   UNL     1       2.438  -1.812  -0.096  1.00  0.00     0.026 C 
HETATM   15  C   UNL     1       0.922  -1.747  -0.015  1.00  0.00     0.007 C 
ENDBRANCH  13  14
ENDBRANCH  10  13
ENDBRANCH   1   7
BRANCH   4  16
HETATM   16  C   UNL     1       9.383  -0.850  -6.425  1.00  0.00     0.123 A 
HETATM   17  C   UNL     1       9.222   0.354  -7.092  1.00  0.00     0.051 A 
HETATM   18  C   UNL     1       9.983   0.593  -8.227  1.00  0.00     0.022 A 
HETATM   19  C   UNL     1      10.865  -0.387  -8.633  1.00  0.00     0.107 A 
HETATM   20  N   UNL     1      11.047  -1.529  -7.940  1.00  0.00    -0.310 N 
HETATM   21  N   UNL     1      10.313  -1.750  -6.809  1.00  0.00    -0.286 N 
ATOM     22  HN  UNL     1      11.726  -2.221  -8.257  1.00  0.00     0.186 HD
ATOM     23  HN  UNL     1      10.467  -2.593  -6.256  1.00  0.00     0.188 HD
ENDBRANCH   4  16
TORSDOF 4
