REMARK  4 active torsions:
REMARK  status: ('A' for Active; 'I' for Inactive)
REMARK       I    between atoms: C_2  and  N_3 
REMARK       I    between atoms: C_2  and  N_13 
REMARK    1  A    between atoms: N_3  and  C_4 
REMARK    2  A    between atoms: C_4  and  C_5 
REMARK    3  A    between atoms: C_5  and  C_6 
REMARK    4  A    between atoms: C_17  and  C_19 
REMARK       I    between atoms: C_19  and  N_21 
ROOT
HETATM    1  O   UNL     1       1.275   0.545  -0.368  1.00  0.00    -0.247 OA
HETATM    2  C   UNL     1       2.366   0.043  -0.113  1.00  0.00     0.318 C 
HETATM    3  N   UNL     1       2.899  -0.986  -0.855  1.00  0.00    -0.343 N 
HETATM    4  N   UNL     1       3.202   0.495   0.895  1.00  0.00    -0.333 N 
HETATM    5  C   UNL     1       2.844   1.714   1.613  1.00  0.00     0.127 C 
HETATM    6  C   UNL     1       4.096   2.548   1.883  1.00  0.00     0.021 C 
HETATM    7  C   UNL     1       5.192   1.736   2.589  1.00  0.00     0.017 C 
HETATM    8  C   UNL     1       5.481   0.422   1.848  1.00  0.00     0.096 C 
HETATM    9  C   UNL     1       4.176  -0.346   1.594  1.00  0.00     0.141 C 
HETATM   10  H   UNL     1       3.899  -0.898  -0.955  1.00  0.00     0.164 HD
ENDROOT
BRANCH   3  11
HETATM   11  C   UNL     1       2.195  -1.466  -2.038  1.00  0.00     0.130 C 
BRANCH  11  12
HETATM   12  C   UNL     1       2.949  -2.620  -2.688  1.00  0.00     0.076 C 
BRANCH  12  13
HETATM   13  C   UNL     1       2.270  -3.143  -3.925  1.00  0.00     0.010 A 
HETATM   14  C   UNL     1       1.328  -4.165  -3.837  1.00  0.00     0.025 A 
HETATM   15  C   UNL     1       0.769  -4.667  -5.010  1.00  0.00     0.003 A 
HETATM   16  C   UNL     1       1.154  -4.131  -6.232  1.00  0.00     0.017 A 
HETATM   17  C   UNL     1       2.082  -3.103  -6.229  1.00  0.00     0.088 A 
HETATM   18  N   UNL     1       2.645  -2.600  -5.108  1.00  0.00    -0.369 N 
ATOM     19  HN  UNL     1       3.325  -1.841  -5.151  1.00  0.00     0.165 HD
ENDBRANCH  12  13
ENDBRANCH  11  12
ENDBRANCH   3  11
BRANCH   8  20
HETATM   20  C   UNL     1       6.411  -0.492   2.641  1.00  0.00     0.225 C 
HETATM   21  O   UNL     1       5.939  -1.279   3.466  1.00  0.00    -0.273 OA
HETATM   22  N   UNL     1       7.774  -0.436   2.414  1.00  0.00    -0.348 N 
HETATM   23  C   UNL     1       8.481   0.435   1.472  1.00  0.00     0.152 C 
HETATM   24  C   UNL     1       8.605  -1.559   2.868  1.00  0.00     0.152 C 
HETATM   25  C   UNL     1       8.999  -0.394   0.288  1.00  0.00     0.187 C 
HETATM   26  O   UNL     1       9.829  -1.477   0.743  1.00  0.00    -0.388 OA
HETATM   27  C   UNL     1       9.115  -2.340   1.648  1.00  0.00     0.187 C 
ENDBRANCH   8  20
TORSDOF 4
