REMARK  4 active torsions:
REMARK  status: ('A' for Active; 'I' for Inactive)
REMARK    1  A    between atoms: N_11  and  C_12 
REMARK    2  A    between atoms: C_12  and  C_13 
REMARK    3  A    between atoms: C_13  and  O_14 
REMARK    4  A    between atoms: C_13  and  C_15 
ROOT
HETATM    1  C   UNL     1       2.756  -2.437   0.153  1.00  0.00     0.167 C 
ENDROOT
BRANCH   1   2
HETATM    2  N   UNL     1       3.285  -1.090  -0.038  1.00  0.00    -0.332 N 
HETATM    3  C   UNL     1       3.436  -0.437  -1.245  1.00  0.00     0.080 A 
HETATM    4  C   UNL     1       3.145  -1.039  -2.570  1.00  0.00     0.089 C 
HETATM    5  N   UNL     1       3.865   0.795  -1.064  1.00  0.00    -0.344 N 
HETATM    6  C   UNL     1       3.995   0.955   0.290  1.00  0.00     0.060 A 
ATOM      7  HN  UNL     1       4.061   1.489  -1.786  1.00  0.00     0.167 HD
HETATM    8  C   UNL     1       4.410   2.082   1.012  1.00  0.00     0.032 A 
HETATM    9  C   UNL     1       3.640  -0.211   0.965  1.00  0.00     0.062 A 
HETATM   10  C   UNL     1       4.459   2.008   2.411  1.00  0.00     0.002 A 
HETATM   11  C   UNL     1       4.109   0.830   3.071  1.00  0.00     0.002 A 
HETATM   12  C   UNL     1       3.691  -0.305   2.363  1.00  0.00     0.032 A 
ENDBRANCH   1   2
BRANCH   1  13
HETATM   13  C   UNL     1       3.844  -3.525   0.130  1.00  0.00     0.175 C 
BRANCH  13  14
HETATM   14  O   UNL     1       4.767  -3.360   1.211  1.00  0.00    -0.389 OA
HETATM   15  H   UNL     1       4.258  -3.312   2.039  1.00  0.00     0.210 HD
ENDBRANCH  13  14
BRANCH  13  16
HETATM   16  C   UNL     1       3.313  -4.937   0.222  1.00  0.00     0.049 A 
HETATM   17  C   UNL     1       3.535  -5.856  -0.806  1.00  0.00     0.128 A 
HETATM   18  F   UNL     1       4.119  -5.457  -1.945  1.00  0.00    -0.205 F 
HETATM   19  C   UNL     1       3.175  -7.200  -0.681  1.00  0.00     0.043 A 
HETATM   20  C   UNL     1       2.566  -7.652   0.489  1.00  0.00     0.006 A 
HETATM   21  C   UNL     1       2.296  -6.746   1.512  1.00  0.00     0.043 A 
HETATM   22  C   UNL     1       2.666  -5.407   1.369  1.00  0.00     0.128 A 
HETATM   23  F   UNL     1       2.416  -4.561   2.379  1.00  0.00    -0.205 F 
ENDBRANCH  13  16
ENDBRANCH   1  13
TORSDOF 4
