REMARK  6 active torsions:
REMARK  status: ('A' for Active; 'I' for Inactive)
REMARK    1  A    between atoms: O_1  and  C_2 
REMARK    2  A    between atoms: C_5  and  C_6 
REMARK    3  A    between atoms: C_6  and  N_7 
REMARK       I    between atoms: N_7  and  C_8 
REMARK    4  A    between atoms: C_8  and  C_10 
REMARK    5  A    between atoms: C_10  and  N_11 
REMARK    6  A    between atoms: C_13  and  C_18 
ROOT
HETATM    1  N   UNL     1       6.781   0.608   0.347  1.00  0.00    -0.359 N 
HETATM    2  C   UNL     1       7.784   0.677  -0.584  1.00  0.00     0.235 C 
HETATM    3  O   UNL     1       8.902   0.258  -0.289  1.00  0.00    -0.272 OA
HETATM    4  H   UNL     1       7.080   0.248   1.246  1.00  0.00     0.162 HD
ENDROOT
BRANCH   2   5
HETATM    5  C   UNL     1       7.413   1.236  -1.967  1.00  0.00     0.234 C 
BRANCH   5   6
HETATM    6  N   UNL     1       8.552   1.269  -2.867  1.00  0.00    -0.315 N 
HETATM    7  C   UNL     1       8.853   0.151  -3.625  1.00  0.00     0.110 A 
HETATM    8  C   UNL     1       9.954   0.094  -4.394  1.00  0.00     0.063 A 
HETATM    9  C   UNL     1      10.836   1.249  -4.424  1.00  0.00     0.023 A 
HETATM   10  C   UNL     1      10.575   2.341  -3.690  1.00  0.00     0.075 A 
HETATM   11  C   UNL     1       9.365   2.398  -2.831  1.00  0.00     0.247 A 
HETATM   12  O   UNL     1       9.137   3.405  -2.167  1.00  0.00    -0.268 OA
BRANCH   8  13
HETATM   13  C   UNL     1      10.293  -1.138  -5.177  1.00  0.00     0.418 C 
HETATM   14  F   UNL     1      11.496  -1.061  -5.800  1.00  0.00    -0.166 F 
HETATM   15  F   UNL     1      10.330  -2.241  -4.385  1.00  0.00    -0.166 F 
HETATM   16  F   UNL     1       9.368  -1.385  -6.140  1.00  0.00    -0.166 F 
ENDBRANCH   8  13
ENDBRANCH   5   6
ENDBRANCH   2   5
BRANCH   1  17
HETATM   17  C   UNL     1       5.401   1.004   0.168  1.00  0.00     0.127 C 
BRANCH  17  18
HETATM   18  C   UNL     1       4.429  -0.182   0.229  1.00  0.00     0.006 C 
HETATM   19  C   UNL     1       4.759  -1.342  -0.725  1.00  0.00     0.009 C 
HETATM   20  C   UNL     1       3.922  -1.136  -1.988  1.00  0.00     0.032 C 
HETATM   21  C   UNL     1       3.093   0.119  -1.745  1.00  0.00     0.118 C 
HETATM   22  C   UNL     1       3.034   0.249  -0.227  1.00  0.00     0.038 C 
BRANCH  21  23
HETATM   23  O   UNL     1       1.793   0.005  -2.287  1.00  0.00    -0.396 OA
HETATM   24  H   UNL     1       1.883  -0.147  -3.244  1.00  0.00     0.210 HD
ENDBRANCH  21  23
ENDBRANCH  17  18
ENDBRANCH   1  17
TORSDOF 6
