REMARK  4 active torsions:
REMARK  status: ('A' for Active; 'I' for Inactive)
REMARK       I    between atoms: N_2  and  C_4 
REMARK    1  A    between atoms: C_4  and  C_6 
REMARK    2  A    between atoms: C_8  and  N_9 
REMARK       I    between atoms: N_9  and  C_10 
REMARK       I    between atoms: C_10  and  N_12 
REMARK    3  A    between atoms: N_12  and  C_13 
REMARK    4  A    between atoms: C_13  and  C_14 
ROOT
HETATM    1  N   UNL     1       7.299  -3.322   2.197  1.00  0.00    -0.309 N 
HETATM    2  C   UNL     1       6.650  -4.476   2.584  1.00  0.00     0.320 C 
HETATM    3  O   UNL     1       5.478  -4.756   2.365  1.00  0.00    -0.247 OA
HETATM    4  N   UNL     1       7.469  -5.342   3.285  1.00  0.00    -0.342 N 
HETATM    5  H   UNL     1       8.232  -3.189   2.553  1.00  0.00     0.170 HD
HETATM    6  H   UNL     1       8.434  -5.351   2.993  1.00  0.00     0.164 HD
ENDROOT
BRANCH   1   7
HETATM    7  C   UNL     1       6.713  -2.253   1.473  1.00  0.00     0.040 A 
HETATM    8  C   UNL     1       5.397  -2.273   1.022  1.00  0.00     0.064 A 
HETATM    9  C   UNL     1       4.879  -1.169   0.354  1.00  0.00     0.102 A 
HETATM   10  N   UNL     1       5.611  -0.058   0.085  1.00  0.00    -0.361 N 
HETATM   11  C   UNL     1       6.888  -0.062   0.525  1.00  0.00     0.090 A 
ATOM     12  HN  UNL     1       5.219   0.736  -0.421  1.00  0.00     0.165 HD
HETATM   13  C   UNL     1       7.478  -1.117   1.216  1.00  0.00     0.046 A 
BRANCH   9  14
HETATM   14  C   UNL     1       3.418  -1.205   0.014  1.00  0.00     0.269 C 
HETATM   15  N   UNL     1       2.909  -0.531  -1.103  1.00  0.00    -0.355 N 
HETATM   16  C   UNL     1       1.481  -0.666  -1.342  1.00  0.00     0.152 C 
HETATM   17  C   UNL     1       3.712   0.196  -2.065  1.00  0.00     0.152 C 
HETATM   18  O   UNL     1       2.676  -1.874   0.740  1.00  0.00    -0.266 OA
ENDBRANCH   9  14
ENDBRANCH   1   7
BRANCH   4  19
HETATM   19  C   UNL     1       6.869  -6.617   3.647  1.00  0.00     0.133 C 
BRANCH  19  20
HETATM   20  C   UNL     1       7.746  -7.561   4.482  1.00  0.00    -0.028 C 
HETATM   21  C   UNL     1       9.008  -7.959   3.697  1.00  0.00     0.016 C 
HETATM   22  C   UNL     1       6.934  -8.824   4.851  1.00  0.00     0.011 C 
HETATM   23  C   UNL     1       7.427  -9.273   6.228  1.00  0.00     0.001 C 
HETATM   24  C   UNL     1       8.402  -8.205   6.710  1.00  0.00     0.001 C 
HETATM   25  C   UNL     1       8.093  -6.980   5.859  1.00  0.00     0.011 C 
ENDBRANCH  19  20
ENDBRANCH   4  19
TORSDOF 4
