REMARK  4 active torsions:
REMARK  status: ('A' for Active; 'I' for Inactive)
REMARK    1  A    between atoms: C_2  and  C_3 
REMARK    2  A    between atoms: C_3  and  C_4 
REMARK    3  A    between atoms: C_6  and  N_7 
REMARK       I    between atoms: N_7  and  C_8 
REMARK       I    between atoms: C_8  and  N_10 
REMARK    4  A    between atoms: N_10  and  C_11 
ROOT
HETATM    1  N   UNL     1       4.627   1.204  -2.080  1.00  0.00    -0.338 N 
HETATM    2  C   UNL     1       4.571   1.292  -3.458  1.00  0.00     0.322 C 
HETATM    3  O   UNL     1       5.133   0.482  -4.186  1.00  0.00    -0.247 OA
HETATM    4  N   UNL     1       3.746   2.303  -3.890  1.00  0.00    -0.290 N 
HETATM    5  H   UNL     1       4.488   2.057  -1.556  1.00  0.00     0.164 HD
HETATM    6  H   UNL     1       2.937   2.498  -3.315  1.00  0.00     0.172 HD
ENDROOT
BRANCH   4   7
HETATM    7  C   UNL     1       3.619   2.619  -5.226  1.00  0.00     0.178 A 
HETATM    8  N   UNL     1       4.574   2.441  -6.085  1.00  0.00    -0.346 N 
HETATM    9  C   UNL     1       4.287   2.713  -7.394  1.00  0.00     0.107 A 
ATOM     10  HN  UNL     1       5.496   2.113  -5.798  1.00  0.00     0.167 HD
HETATM   11  C   UNL     1       3.106   3.157  -7.840  1.00  0.00     0.111 A 
HETATM   12  N   UNL     1       2.069   3.400  -6.966  1.00  0.00    -0.325 N 
HETATM   13  C   UNL     1       0.797   3.895  -7.453  1.00  0.00     0.159 C 
HETATM   14  C   UNL     1       2.246   3.191  -5.602  1.00  0.00     0.291 A 
HETATM   15  O   UNL     1       1.428   3.398  -4.712  1.00  0.00    -0.264 OA
ENDBRANCH   4   7
BRANCH   1  16
HETATM   16  C   UNL     1       5.325   0.120  -1.446  1.00  0.00     0.090 A 
HETATM   17  C   UNL     1       4.707  -0.635  -0.293  1.00  0.00     0.010 A 
HETATM   18  C   UNL     1       5.912   0.240  -0.069  1.00  0.00     0.032 A 
BRANCH  17  19
HETATM   19  C   UNL     1       3.385  -0.241   0.299  1.00  0.00     0.006 C 
BRANCH  19  20
HETATM   20  C   UNL     1       2.262  -1.215  -0.060  1.00  0.00    -0.004 C 
HETATM   21  C   UNL     1       1.987  -1.301  -1.554  1.00  0.00     0.005 C 
ENDBRANCH  19  20
ENDBRANCH  17  19
ENDBRANCH   1  16
TORSDOF 4
