REMARK  1 active torsions:
REMARK  status: ('A' for Active; 'I' for Inactive)
REMARK    1  A    between atoms: N_6  and  C_9 
ROOT
HETATM    1  C   UNL     1       1.168   0.209  -0.605  1.00  0.00     0.070 C 
HETATM    2  C   UNL     1       2.568   0.202  -0.120  1.00  0.00     0.024 A 
HETATM    3  C   UNL     1       3.199   1.153   0.708  1.00  0.00     0.052 A 
HETATM    4  C   UNL     1       4.496   0.707   0.854  1.00  0.00     0.027 A 
HETATM    5  C   UNL     1       5.630   1.311   1.595  1.00  0.00     0.070 C 
HETATM    6  N   UNL     1       4.579  -0.452   0.107  1.00  0.00    -0.290 N 
HETATM    7  N   UNL     1       3.405  -0.779  -0.469  1.00  0.00    -0.303 N 
ATOM      8  HN  UNL     1       3.201  -1.596  -1.045  1.00  0.00     0.186 HD
ENDROOT
BRANCH   6   9
HETATM    9  C   UNL     1       5.801  -1.192  -0.207  1.00  0.00     0.136 C 
HETATM   10  C   UNL     1       6.428  -0.698  -1.518  1.00  0.00     0.031 C 
HETATM   11  C   UNL     1       5.869  -1.437  -2.729  1.00  0.00     0.032 C 
HETATM   12  C   UNL     1       6.048  -2.941  -2.563  1.00  0.00     0.270 C 
HETATM   13  N   UNL     1       5.330  -3.431  -1.394  1.00  0.00     0.085 N 
HETATM   14  C   UNL     1       5.692  -2.736  -0.153  1.00  0.00     0.296 C 
HETATM   15  H   UNL     1       5.472  -4.434  -1.287  1.00  0.00     0.315 HD
ENDBRANCH   6   9
TORSDOF 1
