REMARK  3 active torsions:
REMARK  status: ('A' for Active; 'I' for Inactive)
REMARK    1  A    between atoms: C_2  and  N_6 
REMARK       I    between atoms: N_6  and  C_7 
REMARK       I    between atoms: C_7  and  N_9 
REMARK    2  A    between atoms: N_9  and  C_10 
REMARK    3  A    between atoms: C_16  and  N_17 
ROOT
HETATM    1  N   UNL     1       2.871  -0.052  -1.437  1.00  0.00    -0.334 N 
HETATM    2  C   UNL     1       4.161   0.084  -1.899  1.00  0.00     0.321 C 
HETATM    3  O   UNL     1       5.125   0.282  -1.173  1.00  0.00    -0.247 OA
HETATM    4  N   UNL     1       4.234  -0.083  -3.269  1.00  0.00    -0.306 N 
HETATM    5  H   UNL     1       2.144   0.070  -2.128  1.00  0.00     0.165 HD
HETATM    6  H   UNL     1       3.614  -0.821  -3.600  1.00  0.00     0.170 HD
ENDROOT
BRANCH   4   7
HETATM    7  C   UNL     1       5.483   0.023  -3.944  1.00  0.00     0.072 A 
HETATM    8  C   UNL     1       6.290   1.142  -3.706  1.00  0.00     0.049 A 
HETATM    9  C   UNL     1       7.523   1.227  -4.331  1.00  0.00     0.090 A 
HETATM   10  N   UNL     1       8.003   0.283  -5.168  1.00  0.00    -0.373 N 
HETATM   11  C   UNL     1       7.211  -0.793  -5.396  1.00  0.00     0.126 A 
ATOM     12  HN  UNL     1       8.919   0.375  -5.608  1.00  0.00     0.164 HD
HETATM   13  C   UNL     1       5.950  -0.952  -4.835  1.00  0.00     0.144 A 
BRANCH  13  14
HETATM   14  N   UNL     1       5.197  -2.157  -5.150  1.00  0.00    -0.112 N 
HETATM   15  O   UNL     1       4.020  -2.227  -4.759  1.00  0.00    -0.532 OA
HETATM   16  O   UNL     1       5.764  -3.043  -5.804  1.00  0.00    -0.532 OA
ENDBRANCH  13  14
ENDBRANCH   4   7
BRANCH   1  17
HETATM   17  C   UNL     1       2.526  -0.042   0.011  1.00  0.00     0.031 C 
HETATM   18  C   UNL     1       2.954   1.256   0.680  1.00  0.00     0.038 C 
HETATM   19  C   UNL     1       1.039  -0.403   0.273  1.00  0.00     0.031 C 
HETATM   20  C   UNL     1       1.464  -1.842   0.598  1.00  0.00     0.005 C 
HETATM   21  C   UNL     1       2.914  -1.354   0.747  1.00  0.00     0.031 C 
ENDBRANCH   1  17
TORSDOF 3
