REMARK  3 active torsions:
REMARK  status: ('A' for Active; 'I' for Inactive)
REMARK    1  A    between atoms: N_2  and  C_4 
REMARK    2  A    between atoms: C_8  and  N_9 
REMARK       I    between atoms: N_9  and  C_10 
REMARK       I    between atoms: C_10  and  N_12 
REMARK    3  A    between atoms: N_12  and  C_13 
ROOT
HETATM    1  N   UNL     1       4.568   3.459  -3.947  1.00  0.00    -0.306 N 
HETATM    2  C   UNL     1       5.464   2.852  -4.804  1.00  0.00     0.321 C 
HETATM    3  O   UNL     1       5.582   1.647  -4.962  1.00  0.00    -0.247 OA
HETATM    4  N   UNL     1       6.239   3.732  -5.513  1.00  0.00    -0.337 N 
HETATM    5  H   UNL     1       4.255   4.391  -4.189  1.00  0.00     0.171 HD
HETATM    6  H   UNL     1       6.217   4.710  -5.259  1.00  0.00     0.164 HD
ENDROOT
BRANCH   1   7
HETATM    7  C   UNL     1       3.789   2.720  -3.021  1.00  0.00     0.068 A 
HETATM    8  C   UNL     1       4.127   1.460  -2.574  1.00  0.00     0.137 A 
HETATM    9  N   UNL     1       3.371   0.726  -1.735  1.00  0.00    -0.200 N 
HETATM   10  C   UNL     1       2.214   1.248  -1.307  1.00  0.00     0.679 A 
ATOM     11  HN  UNL     1       3.671  -0.201  -1.434  1.00  0.00     0.183 HD
HETATM   12  N   UNL     1       1.825   2.496  -1.636  1.00  0.00    -0.200 N 
HETATM   13  C   UNL     1       2.620   3.202  -2.476  1.00  0.00     0.137 A 
ATOM     14  HN  UNL     1       0.962   2.895  -1.266  1.00  0.00     0.183 HD
BRANCH  10  15
HETATM   15  N   UNL     1       1.399   0.454  -0.530  1.00  0.00    -0.226 N 
HETATM   16  C   UNL     1       1.904  -0.839  -0.120  1.00  0.00     0.168 C 
HETATM   17  C   UNL     1       0.240   1.037   0.097  1.00  0.00     0.168 C 
ENDBRANCH  10  15
ENDBRANCH   1   7
BRANCH   4  18
HETATM   18  C   UNL     1       7.189   3.213  -6.527  1.00  0.00     0.103 C 
HETATM   19  C   UNL     1       8.415   2.416  -5.975  1.00  0.00     0.041 C 
HETATM   20  C   UNL     1       9.168   1.096  -6.098  1.00  0.00     0.035 C 
HETATM   21  C   UNL     1       9.124   2.991  -7.251  1.00  0.00     0.137 C 
HETATM   22  C   UNL     1      10.636   1.574  -6.290  1.00  0.00     0.168 C 
HETATM   23  O   UNL     1      10.527   2.820  -7.023  1.00  0.00    -0.385 OA
HETATM   24  C   UNL     1       8.271   4.263  -7.065  1.00  0.00    -0.000 C 
HETATM   25  C   UNL     1       7.787   4.894  -8.372  1.00  0.00     0.019 C 
HETATM   26  C   UNL     1       8.890   5.296  -6.121  1.00  0.00     0.019 C 
ENDBRANCH   4  18
TORSDOF 3
