REMARK  2 active torsions:
REMARK  status: ('A' for Active; 'I' for Inactive)
REMARK    1  A    between atoms: C_5  and  C_7 
REMARK       I    between atoms: C_7  and  N_9 
REMARK    2  A    between atoms: N_9  and  C_10 
ROOT
HETATM    1  C   UNL     1       5.351   1.011  -0.124  1.00  0.00     0.252 C 
HETATM    2  O   UNL     1       6.132   0.191  -0.601  1.00  0.00    -0.270 OA
HETATM    3  N   UNL     1       5.252   2.322  -0.541  1.00  0.00    -0.310 N 
HETATM    4  H   UNL     1       4.850   3.003   0.090  1.00  0.00     0.170 HD
ENDROOT
BRANCH   3   5
HETATM    5  C   UNL     1       6.018   2.850  -1.580  1.00  0.00     0.123 A 
HETATM    6  C   UNL     1       6.400   2.103  -2.696  1.00  0.00     0.136 A 
HETATM    7  N   UNL     1       7.207   2.592  -3.671  1.00  0.00    -0.371 N 
HETATM    8  C   UNL     1       7.640   3.852  -3.468  1.00  0.00     0.104 A 
ATOM      9  HN  UNL     1       7.466   2.048  -4.494  1.00  0.00     0.164 HD
HETATM   10  C   UNL     1       7.240   4.606  -2.376  1.00  0.00     0.106 A 
HETATM   11  N   UNL     1       6.392   4.137  -1.430  1.00  0.00    -0.350 N 
ATOM     12  HN  UNL     1       6.060   4.716  -0.659  1.00  0.00     0.166 HD
ENDBRANCH   3   5
BRANCH   1  13
HETATM   13  C   UNL     1       4.419   0.678   1.048  1.00  0.00     0.214 C 
HETATM   14  C   UNL     1       4.331  -0.819   1.314  1.00  0.00     0.044 C 
HETATM   15  C   UNL     1       3.077  -1.259   0.587  1.00  0.00     0.034 C 
HETATM   16  C   UNL     1       2.512   0.015  -0.016  1.00  0.00     0.118 C 
HETATM   17  C   UNL     1       1.000   0.099   0.019  1.00  0.00     0.039 C 
HETATM   18  O   UNL     1       3.083   1.088   0.752  1.00  0.00    -0.372 OA
ENDBRANCH   1  13
TORSDOF 2
