REMARK  3 active torsions:
REMARK  status: ('A' for Active; 'I' for Inactive)
REMARK    1  A    between atoms: C_2  and  C_5 
REMARK    2  A    between atoms: C_8  and  N_9 
REMARK       I    between atoms: N_9  and  C_10 
REMARK       I    between atoms: C_10  and  N_12 
REMARK    3  A    between atoms: N_12  and  C_13 
ROOT
HETATM    1  N   UNL     1       3.697  -4.168   3.554  1.00  0.00    -0.294 N 
HETATM    2  C   UNL     1       3.447  -5.482   3.241  1.00  0.00     0.322 C 
HETATM    3  O   UNL     1       3.688  -6.367   4.055  1.00  0.00    -0.247 OA
HETATM    4  N   UNL     1       2.911  -5.709   2.010  1.00  0.00    -0.333 N 
HETATM    5  H   UNL     1       4.051  -4.028   4.489  1.00  0.00     0.172 HD
HETATM    6  H   UNL     1       2.923  -4.897   1.399  1.00  0.00     0.165 HD
ENDROOT
BRANCH   1   7
HETATM    7  C   UNL     1       3.481  -3.051   2.733  1.00  0.00     0.123 A 
HETATM    8  C   UNL     1       3.731  -1.777   3.197  1.00  0.00     0.052 A 
HETATM    9  C   UNL     1       3.470  -0.700   2.346  1.00  0.00     0.031 A 
HETATM   10  C   UNL     1       2.971  -0.935   1.066  1.00  0.00     0.033 A 
HETATM   11  N   UNL     1       2.764  -2.197   0.651  1.00  0.00    -0.303 N 
HETATM   12  N   UNL     1       3.022  -3.238   1.481  1.00  0.00    -0.285 N 
ATOM     13  HN  UNL     1       2.412  -2.372  -0.290  1.00  0.00     0.186 HD
ATOM     14  HN  UNL     1       2.864  -4.189   1.148  1.00  0.00     0.188 HD
BRANCH  10  15
HETATM   15  C   UNL     1       2.609   0.176   0.087  1.00  0.00    -0.007 C 
HETATM   16  C   UNL     1       3.846   1.037  -0.217  1.00  0.00     0.021 C 
HETATM   17  C   UNL     1       1.487   1.042   0.683  1.00  0.00     0.021 C 
HETATM   18  C   UNL     1       2.094  -0.402  -1.255  1.00  0.00     0.021 C 
ENDBRANCH  10  15
ENDBRANCH   1   7
BRANCH   4  19
HETATM   19  C   UNL     1       2.526  -6.978   1.392  1.00  0.00     0.044 C 
HETATM   20  C   UNL     1       1.467  -7.675   2.259  1.00  0.00     0.039 C 
HETATM   21  C   UNL     1       3.772  -7.852   1.148  1.00  0.00     0.046 C 
HETATM   22  C   UNL     1       3.504  -8.827   0.005  1.00  0.00     0.143 C 
HETATM   23  S   UNL     1       2.153  -8.165  -0.942  1.00  0.00     0.146 S 
HETATM   24  O   UNL     1       2.625  -7.821  -2.266  1.00  0.00    -0.228 OA
HETATM   25  O   UNL     1       0.987  -9.004  -0.743  1.00  0.00    -0.228 OA
HETATM   26  C   UNL     1       1.955  -6.674  -0.005  1.00  0.00     0.170 C 
ENDBRANCH   4  19
TORSDOF 3
