REMARK  4 active torsions:
REMARK  status: ('A' for Active; 'I' for Inactive)
REMARK    1  A    between atoms: C_6  and  O_7 
REMARK    2  A    between atoms: C_6  and  C_8 
REMARK    3  A    between atoms: C_8  and  N_9 
REMARK    4  A    between atoms: C_14  and  N_21 
ROOT
HETATM    1  N   UNL     1       0.759   1.825   1.979  1.00  0.00    -0.324 N 
HETATM    2  C   UNL     1      -0.340   1.011   1.956  1.00  0.00     0.185 A 
HETATM    3  N   UNL     1      -1.428   1.672   1.626  1.00  0.00    -0.346 N 
ATOM      4  HN  UNL     1      -2.370   1.295   1.519  1.00  0.00     0.167 HD
HETATM    5  C   UNL     1      -1.029   2.988   1.454  1.00  0.00     0.122 A 
HETATM    6  C   UNL     1      -1.717   4.165   1.042  1.00  0.00     0.135 A 
HETATM    7  N   UNL     1      -0.977   5.318   1.060  1.00  0.00    -0.337 N 
ATOM      8  HN  UNL     1      -1.413   6.205   0.807  1.00  0.00     0.168 HD
HETATM    9  C   UNL     1       0.325   5.286   1.411  1.00  0.00     0.183 A 
HETATM   10  N   UNL     1       1.073   4.219   1.737  1.00  0.00    -0.336 N 
ATOM     11  HN  UNL     1       2.069   4.253   1.952  1.00  0.00     0.168 HD
HETATM   12  C   UNL     1       0.330   3.103   1.741  1.00  0.00     0.140 A 
ENDROOT
BRANCH   6  13
HETATM   13  N   UNL     1      -3.035   4.237   0.621  1.00  0.00    -0.363 N 
HETATM   14  C   UNL     1      -3.634   5.516   0.236  1.00  0.00     0.127 C 
HETATM   15  C   UNL     1      -4.872   5.787   1.094  1.00  0.00     0.054 C 
HETATM   16  C   UNL     1      -5.833   4.597   1.084  1.00  0.00     0.147 C 
HETATM   17  O   UNL     1      -6.913   4.862   1.993  1.00  0.00    -0.375 OA
HETATM   18  C   UNL     1      -5.100   3.312   1.518  1.00  0.00     0.131 C 
HETATM   19  C   UNL     1      -7.841   3.780   2.014  1.00  0.00     0.271 C 
HETATM   20  C   UNL     1      -7.259   2.362   2.141  1.00  0.00     0.241 C 
HETATM   21  O   UNL     1      -7.879   1.414   2.614  1.00  0.00    -0.271 OA
HETATM   22  N   UNL     1      -6.011   2.180   1.588  1.00  0.00    -0.351 N 
HETATM   23  H   UNL     1      -5.625   1.264   1.788  1.00  0.00     0.163 HD
HETATM   24  C   UNL     1      -3.921   3.077   0.563  1.00  0.00     0.152 C 
ENDBRANCH   6  13
BRANCH   1  25
HETATM   25  C   UNL     1       2.133   1.387   2.184  1.00  0.00     0.172 C 
BRANCH  25  26
HETATM   26  C   UNL     1       2.810   0.870   0.890  1.00  0.00     0.102 C 
HETATM   27  C   UNL     1       4.302   0.523   1.066  1.00  0.00     0.153 C 
HETATM   28  C   UNL     1       4.705  -0.211   2.332  1.00  0.00     0.042 C 
HETATM   29  O   UNL     1       5.013   1.769   0.972  1.00  0.00    -0.383 OA
HETATM   30  C   UNL     1       4.190   2.695   0.244  1.00  0.00     0.171 C 
HETATM   31  C   UNL     1       2.949   1.937  -0.189  1.00  0.00     0.068 C 
BRANCH  26  32
HETATM   32  O   UNL     1       2.092  -0.272   0.415  1.00  0.00    -0.385 OA
HETATM   33  H   UNL     1       2.462  -0.539  -0.445  1.00  0.00     0.210 HD
ENDBRANCH  26  32
ENDBRANCH  25  26
ENDBRANCH   1  25
TORSDOF 4
