REMARK  4 active torsions:
REMARK  status: ('A' for Active; 'I' for Inactive)
REMARK       I    between atoms: C_2  and  N_3 
REMARK       I    between atoms: C_2  and  N_12 
REMARK    1  A    between atoms: N_3  and  C_4 
REMARK    2  A    between atoms: C_4  and  C_5 
REMARK    3  A    between atoms: C_5  and  N_6 
REMARK    4  A    between atoms: N_12  and  C_13 
ROOT
HETATM    1  O   UNL     1       1.217  -0.468  -0.051  1.00  0.00    -0.247 OA
HETATM    2  C   UNL     1       2.401  -0.164  -0.113  1.00  0.00     0.320 C 
HETATM    3  N   UNL     1       3.173  -0.022   1.028  1.00  0.00    -0.341 N 
HETATM    4  N   UNL     1       3.101   0.105  -1.266  1.00  0.00    -0.308 N 
HETATM    5  H   UNL     1       4.132  -0.326   0.927  1.00  0.00     0.164 HD
HETATM    6  H   UNL     1       3.893   0.722  -1.164  1.00  0.00     0.170 HD
ENDROOT
BRANCH   3   7
HETATM    7  C   UNL     1       2.493  -0.366   2.270  1.00  0.00     0.154 C 
BRANCH   7   8
HETATM    8  C   UNL     1       3.284  -0.095   3.557  1.00  0.00     0.292 C 
BRANCH   8   9
HETATM    9  N   UNL     1       2.545  -0.516   4.764  1.00  0.00     0.094 N 
HETATM   10  C   UNL     1       1.302   0.253   5.015  1.00  0.00     0.298 C 
HETATM   11  C   UNL     1       1.534   1.674   5.554  1.00  0.00     0.198 C 
HETATM   12  O   UNL     1       2.343   1.660   6.736  1.00  0.00    -0.388 OA
HETATM   13  C   UNL     1       3.591   1.001   6.494  1.00  0.00     0.198 C 
HETATM   14  C   UNL     1       3.379  -0.433   5.982  1.00  0.00     0.298 C 
ENDBRANCH   8   9
ENDBRANCH   7   8
ENDBRANCH   3   7
BRANCH   4  15
HETATM   15  C   UNL     1       2.540  -0.034  -2.563  1.00  0.00     0.051 A 
HETATM   16  C   UNL     1       1.466  -0.878  -2.840  1.00  0.00     0.032 A 
HETATM   17  C   UNL     1       0.913  -0.916  -4.118  1.00  0.00     0.019 A 
HETATM   18  C   UNL     1       1.475  -0.118  -5.097  1.00  0.00     0.088 A 
HETATM   19  N   UNL     1       2.550   0.675  -4.889  1.00  0.00    -0.373 N 
HETATM   20  C   UNL     1       3.056   0.695  -3.628  1.00  0.00     0.117 A 
ATOM     21  HN  UNL     1       2.960   1.230  -5.640  1.00  0.00     0.164 HD
ENDBRANCH   4  15
TORSDOF 4
