REMARK  4 active torsions:
REMARK  status: ('A' for Active; 'I' for Inactive)
REMARK    1  A    between atoms: O_2  and  C_3 
REMARK    2  A    between atoms: C_3  and  C_4 
REMARK    3  A    between atoms: C_4  and  N_5 
REMARK    4  A    between atoms: C_6  and  N_18 
ROOT
HETATM    1  N   UNL     1       4.804  -1.969  -1.857  1.00  0.00    -0.170 N 
HETATM    2  C   UNL     1       5.408  -1.800  -3.096  1.00  0.00     0.708 A 
HETATM    3  N   UNL     1       5.470  -2.946  -3.758  1.00  0.00    -0.172 N 
ATOM      4  HN  UNL     1       5.809  -3.096  -4.708  1.00  0.00     0.186 HD
HETATM    5  C   UNL     1       4.985  -3.878  -2.899  1.00  0.00     0.160 A 
HETATM    6  N   UNL     1       4.889  -5.231  -3.142  1.00  0.00    -0.287 N 
HETATM    7  C   UNL     1       5.352  -5.837  -4.370  1.00  0.00     0.163 C 
HETATM    8  C   UNL     1       4.318  -6.048  -2.171  1.00  0.00     0.330 A 
HETATM    9  O   UNL     1       4.178  -7.265  -2.301  1.00  0.00    -0.246 OA
HETATM   10  N   UNL     1       3.894  -5.439  -1.009  1.00  0.00    -0.273 N 
HETATM   11  C   UNL     1       3.970  -4.101  -0.691  1.00  0.00     0.280 A 
HETATM   12  O   UNL     1       3.553  -3.680   0.381  1.00  0.00    -0.265 OA
HETATM   13  C   UNL     1       4.559  -3.319  -1.727  1.00  0.00     0.164 A 
HETATM   14  H   UNL     1       3.482  -6.045  -0.317  1.00  0.00     0.173 HD
ENDROOT
BRANCH   2  15
HETATM   15  N   UNL     1       5.854  -0.586  -3.639  1.00  0.00    -0.090 N 
HETATM   16  N   UNL     1       6.113   0.450  -2.802  1.00  0.00    -0.284 N 
HETATM   17  C   UNL     1       6.526   1.444  -3.594  1.00  0.00     0.025 A 
ATOM     18  HN  UNL     1       6.014   0.467  -1.787  1.00  0.00     0.188 HD
HETATM   19  C   UNL     1       6.932   2.753  -3.026  1.00  0.00     0.070 C 
HETATM   20  C   UNL     1       6.498   1.071  -4.951  1.00  0.00     0.053 A 
HETATM   21  C   UNL     1       6.080  -0.242  -4.959  1.00  0.00     0.050 A 
HETATM   22  C   UNL     1       5.817  -1.152  -6.100  1.00  0.00     0.071 C 
ENDBRANCH   2  15
BRANCH   1  23
HETATM   23  C   UNL     1       4.326  -0.930  -0.957  1.00  0.00     0.174 C 
BRANCH  23  24
HETATM   24  C   UNL     1       3.226  -0.064  -1.578  1.00  0.00     0.187 C 
BRANCH  24  25
HETATM   25  O   UNL     1       2.759   0.881  -0.614  1.00  0.00    -0.394 OA
HETATM   26  C   UNL     1       1.817   1.778  -1.190  1.00  0.00     0.201 C 
ENDBRANCH  24  25
ENDBRANCH  23  24
ENDBRANCH   1  23
TORSDOF 4
