REMARK  6 active torsions:
REMARK  status: ('A' for Active; 'I' for Inactive)
REMARK    1  A    between atoms: O_1  and  C_2 
REMARK    2  A    between atoms: C_2  and  C_3 
REMARK    3  A    between atoms: C_2  and  C_15 
REMARK    4  A    between atoms: C_3  and  N_4 
REMARK       I    between atoms: N_4  and  C_5 
REMARK       I    between atoms: C_5  and  N_7 
REMARK    5  A    between atoms: N_7  and  C_8 
REMARK    6  A    between atoms: C_15  and  N_16 
ROOT
HETATM    1  N   UNL     1       2.463  -2.589  -0.438  1.00  0.00    -0.340 N 
HETATM    2  C   UNL     1       2.754  -3.887  -0.080  1.00  0.00     0.321 C 
HETATM    3  O   UNL     1       3.227  -4.169   1.020  1.00  0.00    -0.247 OA
HETATM    4  N   UNL     1       2.508  -4.774  -1.095  1.00  0.00    -0.295 N 
HETATM    5  H   UNL     1       1.587  -2.483  -0.941  1.00  0.00     0.164 HD
HETATM    6  H   UNL     1       2.754  -4.430  -2.012  1.00  0.00     0.172 HD
ENDROOT
BRANCH   1   7
HETATM    7  C   UNL     1       2.789  -1.542   0.511  1.00  0.00     0.157 C 
BRANCH   7   8
HETATM    8  C   UNL     1       2.266  -0.154   0.119  1.00  0.00     0.164 C 
BRANCH   8   9
HETATM    9  O   UNL     1       0.838  -0.227  -0.006  1.00  0.00    -0.392 OA
HETATM   10  H   UNL     1       0.487  -0.451   0.873  1.00  0.00     0.210 HD
ENDBRANCH   8   9
BRANCH   8  11
HETATM   11  C   UNL     1       2.907   0.366  -1.191  1.00  0.00     0.305 C 
BRANCH  11  12
HETATM   12  N   UNL     1       2.580   1.765  -1.555  1.00  0.00     0.090 N 
HETATM   13  C   UNL     1       3.145   2.128  -2.866  1.00  0.00     0.272 C 
HETATM   14  C   UNL     1       4.663   2.341  -2.852  1.00  0.00     0.030 C 
HETATM   15  C   UNL     1       5.083   3.334  -1.772  1.00  0.00     0.003 C 
HETATM   16  C   UNL     1       4.465   2.976  -0.424  1.00  0.00     0.030 C 
HETATM   17  C   UNL     1       2.955   2.771  -0.552  1.00  0.00     0.272 C 
ENDBRANCH  11  12
ENDBRANCH   8  11
ENDBRANCH   7   8
ENDBRANCH   1   7
BRANCH   4  18
HETATM   18  C   UNL     1       2.801  -6.135  -0.942  1.00  0.00     0.108 A 
HETATM   19  C   UNL     1       2.413  -6.833   0.196  1.00  0.00     0.049 A 
HETATM   20  C   UNL     1       2.806  -8.160   0.333  1.00  0.00     0.005 A 
HETATM   21  C   UNL     1       3.583  -8.739  -0.660  1.00  0.00     0.017 A 
HETATM   22  C   UNL     1       3.892  -7.976  -1.776  1.00  0.00     0.089 A 
HETATM   23  N   UNL     1       3.487  -6.699  -1.956  1.00  0.00    -0.352 N 
ATOM     24  HN  UNL     1       3.690  -6.188  -2.815  1.00  0.00     0.166 HD
ENDBRANCH   4  18
TORSDOF 6
