REMARK  5 active torsions:
REMARK  status: ('A' for Active; 'I' for Inactive)
REMARK    1  A    between atoms: C_2  and  C_3 
REMARK       I    between atoms: C_2  and  N_17 
REMARK    2  A    between atoms: C_3  and  N_4 
REMARK    3  A    between atoms: N_11  and  C_12 
REMARK    4  A    between atoms: N_17  and  C_18 
REMARK    5  A    between atoms: C_18  and  C_19 
ROOT
HETATM    1  N   UNL     1       2.064  -1.088   2.130  1.00  0.00    -0.256 N 
HETATM    2  C   UNL     1       1.875  -2.447   1.934  1.00  0.00     0.274 A 
HETATM    3  O   UNL     1       2.433  -3.077   1.035  1.00  0.00    -0.266 OA
HETATM    4  C   UNL     1       0.943  -3.125   2.861  1.00  0.00     0.128 A 
HETATM    5  C   UNL     1       0.742  -4.528   2.775  1.00  0.00     0.106 C 
HETATM    6  N   UNL     1       0.541  -5.670   2.762  1.00  0.00    -0.191 NA
HETATM    7  C   UNL     1       0.285  -2.380   3.754  1.00  0.00     0.124 A 
HETATM    8  N   UNL     1       0.468  -1.020   3.868  1.00  0.00    -0.303 N 
HETATM    9  C   UNL     1       1.367  -0.313   3.062  1.00  0.00     0.332 A 
HETATM   10  O   UNL     1       1.536   0.901   3.170  1.00  0.00    -0.246 OA
ENDROOT
BRANCH   1  11
HETATM   11  C   UNL     1       3.002  -0.406   1.249  1.00  0.00     0.239 C 
BRANCH  11  12
HETATM   12  C   UNL     1       2.277   0.100   0.000  1.00  0.00     0.236 C 
HETATM   13  O   UNL     1       1.707   1.187  -0.036  1.00  0.00    -0.272 OA
HETATM   14  N   UNL     1       2.257  -0.790  -1.054  1.00  0.00    -0.359 N 
HETATM   15  H   UNL     1       2.657  -1.716  -0.925  1.00  0.00     0.162 HD
BRANCH  14  16
HETATM   16  C   UNL     1       1.661  -0.463  -2.334  1.00  0.00     0.127 C 
BRANCH  16  17
HETATM   17  C   UNL     1       0.530  -1.446  -2.568  1.00  0.00     0.003 C 
HETATM   18  C   UNL     1      -0.259  -1.245  -3.891  1.00  0.00     0.006 C 
HETATM   19  C   UNL     1      -1.528  -1.651  -3.116  1.00  0.00     0.001 C 
HETATM   20  C   UNL     1      -0.813  -1.179  -1.833  1.00  0.00     0.006 C 
ENDBRANCH  16  17
ENDBRANCH  14  16
ENDBRANCH  11  12
ENDBRANCH   1  11
BRANCH   8  21
HETATM   21  C   UNL     1      -0.405  -0.300   4.772  1.00  0.00     0.094 A 
HETATM   22  C   UNL     1       0.118   0.530   5.918  1.00  0.00     0.028 A 
HETATM   23  C   UNL     1      -0.635  -0.732   6.202  1.00  0.00     0.028 A 
ENDBRANCH   8  21
TORSDOF 5
