REMARK  4 active torsions:
REMARK  status: ('A' for Active; 'I' for Inactive)
REMARK    1  A    between atoms: C_2  and  N_3 
REMARK    2  A    between atoms: C_2  and  C_19 
REMARK       I    between atoms: N_3  and  C_4 
REMARK       I    between atoms: C_4  and  N_6 
REMARK    3  A    between atoms: N_6  and  C_7 
REMARK    4  A    between atoms: C_13  and  N_14 
ROOT
HETATM    1  N   UNL     1       3.265   0.557  -1.229  1.00  0.00    -0.336 N 
HETATM    2  C   UNL     1       3.087  -0.048  -2.447  1.00  0.00     0.321 C 
HETATM    3  O   UNL     1       2.800  -1.235  -2.559  1.00  0.00    -0.247 OA
HETATM    4  N   UNL     1       3.209   0.843  -3.492  1.00  0.00    -0.306 N 
HETATM    5  H   UNL     1       3.534   1.531  -1.180  1.00  0.00     0.164 HD
HETATM    6  H   UNL     1       2.859   1.769  -3.285  1.00  0.00     0.171 HD
ENDROOT
BRANCH   4   7
HETATM    7  C   UNL     1       2.880   0.433  -4.809  1.00  0.00     0.075 A 
HETATM    8  C   UNL     1       3.481  -0.681  -5.394  1.00  0.00     0.034 A 
HETATM    9  C   UNL     1       3.114  -1.044  -6.682  1.00  0.00     0.019 A 
HETATM   10  C   UNL     1       2.170  -0.268  -7.331  1.00  0.00     0.089 A 
HETATM   11  N   UNL     1       1.578   0.824  -6.793  1.00  0.00    -0.355 N 
HETATM   12  C   UNL     1       1.916   1.170  -5.531  1.00  0.00     0.109 A 
ATOM     13  HN  UNL     1       0.898   1.369  -7.323  1.00  0.00     0.166 HD
BRANCH  12  14
HETATM   14  N   UNL     1       1.227   2.216  -4.864  1.00  0.00    -0.267 NA
HETATM   15  C   UNL     1       0.516   3.154  -5.747  1.00  0.00     0.097 C 
HETATM   16  C   UNL     1      -0.755   3.507  -4.989  1.00  0.00     0.016 C 
HETATM   17  C   UNL     1      -1.086   2.230  -4.248  1.00  0.00     0.016 C 
HETATM   18  C   UNL     1       0.280   1.683  -3.859  1.00  0.00     0.097 C 
ENDBRANCH  12  14
ENDBRANCH   4   7
BRANCH   1  19
HETATM   19  C   UNL     1       2.957  -0.138   0.017  1.00  0.00     0.111 C 
HETATM   20  C   UNL     1       1.530   0.214   0.443  1.00  0.00     0.035 C 
BRANCH  19  21
HETATM   21  C   UNL     1       4.022   0.189   1.075  1.00  0.00     0.143 C 
HETATM   22  C   UNL     1       3.903  -0.595   2.379  1.00  0.00     0.036 C 
HETATM   23  C   UNL     1       4.086   0.438   3.470  1.00  0.00     0.029 C 
HETATM   24  C   UNL     1       4.576   1.667   2.740  1.00  0.00     0.168 C 
HETATM   25  O   UNL     1       3.990   1.585   1.437  1.00  0.00    -0.384 OA
ENDBRANCH  19  21
ENDBRANCH   1  19
TORSDOF 4
