REMARK  3 active torsions:
REMARK  status: ('A' for Active; 'I' for Inactive)
REMARK    1  A    between atoms: N_11  and  C_12 
REMARK    2  A    between atoms: C_12  and  C_13 
REMARK    3  A    between atoms: C_13  and  O_14 
ROOT
HETATM    1  C   UNL     1       1.103  -0.041   0.056  1.00  0.00     0.089 C 
HETATM    2  C   UNL     1       2.587  -0.007   0.037  1.00  0.00     0.080 A 
HETATM    3  N   UNL     1       3.316   1.091   0.030  1.00  0.00    -0.344 N 
ATOM      4  HN  UNL     1       2.977   2.053   0.020  1.00  0.00     0.167 HD
HETATM    5  C   UNL     1       4.622   0.678   0.039  1.00  0.00     0.060 A 
HETATM    6  C   UNL     1       5.797   1.443   0.059  1.00  0.00     0.032 A 
HETATM    7  C   UNL     1       7.032   0.784   0.066  1.00  0.00     0.002 A 
HETATM    8  C   UNL     1       7.094  -0.610   0.050  1.00  0.00     0.002 A 
HETATM    9  C   UNL     1       5.931  -1.390   0.031  1.00  0.00     0.032 A 
HETATM   10  C   UNL     1       4.705  -0.711   0.030  1.00  0.00     0.062 A 
HETATM   11  N   UNL     1       3.391  -1.127   0.030  1.00  0.00    -0.333 N 
ENDROOT
BRANCH  11  12
HETATM   12  C   UNL     1       2.942  -2.508   0.079  1.00  0.00     0.156 C 
BRANCH  12  13
HETATM   13  C   UNL     1       2.645  -3.094  -1.298  1.00  0.00     0.184 C 
BRANCH  13  14
HETATM   14  O   UNL     1       3.827  -3.255  -2.074  1.00  0.00    -0.399 OA
HETATM   15  H   UNL     1       4.103  -2.370  -2.378  1.00  0.00     0.209 HD
ENDBRANCH  13  14
ENDBRANCH  12  13
ENDBRANCH  11  12
TORSDOF 3
