REMARK  5 active torsions:
REMARK  status: ('A' for Active; 'I' for Inactive)
REMARK    1  A    between atoms: C_4  and  N_5 
REMARK       I    between atoms: N_5  and  C_6 
REMARK    2  A    between atoms: C_6  and  C_8 
REMARK    3  A    between atoms: C_8  and  O_9 
REMARK    4  A    between atoms: O_9  and  C_10 
REMARK    5  A    between atoms: C_10  and  C_11 
ROOT
HETATM    1  N   UNL     1       5.057   2.580  -0.254  1.00  0.00    -0.324 N 
HETATM    2  C   UNL     1       4.473   3.838  -0.173  1.00  0.00     0.245 C 
HETATM    3  O   UNL     1       3.326   4.094   0.182  1.00  0.00    -0.271 OA
HETATM    4  H   UNL     1       6.026   2.573  -0.558  1.00  0.00     0.169 HD
ENDROOT
BRANCH   1   5
HETATM    5  C   UNL     1       4.447   1.361  -0.060  1.00  0.00     0.050 A 
HETATM    6  C   UNL     1       3.142   1.198   0.206  1.00  0.00     0.123 A 
HETATM    7  N   UNL     1       2.564  -0.052   0.351  1.00  0.00    -0.327 N 
HETATM    8  C   UNL     1       1.133  -0.152   0.574  1.00  0.00     0.159 C 
HETATM    9  C   UNL     1       3.297  -1.229   0.233  1.00  0.00     0.247 A 
HETATM   10  C   UNL     1       4.749  -1.052  -0.044  1.00  0.00     0.077 A 
HETATM   11  O   UNL     1       2.833  -2.360   0.334  1.00  0.00    -0.268 OA
HETATM   12  C   UNL     1       5.273   0.174  -0.186  1.00  0.00     0.036 A 
ENDBRANCH   1   5
BRANCH   2  13
HETATM   13  C   UNL     1       5.426   4.949  -0.607  1.00  0.00     0.270 C 
BRANCH  13  14
HETATM   14  O   UNL     1       6.040   4.681  -1.863  1.00  0.00    -0.382 OA
BRANCH  14  15
HETATM   15  C   UNL     1       5.092   4.723  -2.934  1.00  0.00     0.172 C 
BRANCH  15  16
HETATM   16  C   UNL     1       5.842   4.586  -4.218  1.00  0.00     0.009 A 
HETATM   17  C   UNL     1       5.098   4.381  -5.512  1.00  0.00     0.007 A 
HETATM   18  C   UNL     1       5.917   3.260  -4.932  1.00  0.00     0.007 A 
ENDBRANCH  15  16
ENDBRANCH  14  15
ENDBRANCH  13  14
ENDBRANCH   2  13
TORSDOF 5
