REMARK  1 active torsions:
REMARK  status: ('A' for Active; 'I' for Inactive)
REMARK    1  A    between atoms: C_2  and  C_9 
ROOT
HETATM    1  C   UNL     1       1.022   0.102   0.215  1.00  0.00     0.056 C 
HETATM    2  C   UNL     1       2.531   0.117   0.003  1.00  0.00     0.156 C 
HETATM    3  N   UNL     1       3.152  -1.066   0.582  1.00  0.00    -0.320 N 
HETATM    4  C   UNL     1       4.214  -0.745   1.391  1.00  0.00     0.324 C 
HETATM    5  O   UNL     1       5.028  -1.534   1.832  1.00  0.00    -0.247 OA
HETATM    6  N   UNL     1       4.207   0.590   1.600  1.00  0.00    -0.277 N 
HETATM    7  C   UNL     1       3.221   1.182   0.874  1.00  0.00     0.260 C 
HETATM    8  O   UNL     1       2.973   2.380   0.891  1.00  0.00    -0.270 OA
HETATM    9  H   UNL     1       3.138  -1.964   0.113  1.00  0.00     0.166 HD
HETATM   10  H   UNL     1       4.865   1.073   2.187  1.00  0.00     0.173 HD
ENDROOT
BRANCH   2  11
HETATM   11  C   UNL     1       2.878   0.243  -1.471  1.00  0.00     0.062 A 
HETATM   12  C   UNL     1       3.033   1.480  -2.098  1.00  0.00     0.115 A 
HETATM   13  N   UNL     1       3.327   1.607  -3.415  1.00  0.00    -0.372 N 
HETATM   14  C   UNL     1       3.448   0.451  -4.100  1.00  0.00     0.104 A 
ATOM     15  HN  UNL     1       3.449   2.517  -3.859  1.00  0.00     0.164 HD
HETATM   16  C   UNL     1       3.280  -0.782  -3.499  1.00  0.00     0.105 A 
HETATM   17  N   UNL     1       2.989  -0.917  -2.187  1.00  0.00    -0.364 N 
ATOM     18  HN  UNL     1       2.859  -1.832  -1.755  1.00  0.00     0.165 HD
ENDBRANCH   2  11
TORSDOF 1
