REMARK  7 active torsions:
REMARK  status: ('A' for Active; 'I' for Inactive)
REMARK    1  A    between atoms: C_2  and  S_3 
REMARK    2  A    between atoms: S_3  and  C_6 
REMARK    3  A    between atoms: C_6  and  C_7 
REMARK    4  A    between atoms: C_7  and  N_8 
REMARK    5  A    between atoms: C_12  and  C_13 
REMARK    6  A    between atoms: C_13  and  N_14 
REMARK    7  A    between atoms: N_14  and  C_15 
ROOT
HETATM    1  N   UNL     1       6.804  -1.097   2.954  1.00  0.00     0.093 N 
HETATM    2  C   UNL     1       7.291  -2.421   3.394  1.00  0.00     0.298 C 
HETATM    3  C   UNL     1       7.023  -2.711   4.881  1.00  0.00     0.198 C 
HETATM    4  O   UNL     1       7.528  -1.667   5.728  1.00  0.00    -0.381 OA
HETATM    5  C   UNL     1       6.977  -0.388   5.347  1.00  0.00     0.163 C 
HETATM    6  C   UNL     1       7.328  -0.079   3.883  1.00  0.00     0.305 C 
ENDROOT
BRANCH   5   7
HETATM    7  C   UNL     1       7.533   0.701   6.279  1.00  0.00     0.127 C 
BRANCH   7   8
HETATM    8  N   UNL     1       7.044   0.444   7.626  1.00  0.00    -0.275 NA
HETATM    9  H   UNL     1       7.156  -0.530   7.914  1.00  0.00     0.129 HD
BRANCH   8  10
HETATM   10  C   UNL     1       7.404   1.251   8.684  1.00  0.00     0.094 A 
HETATM   11  C   UNL     1       7.559   2.628   8.577  1.00  0.00     0.045 A 
HETATM   12  C   UNL     1       7.820   3.380   9.718  1.00  0.00     0.022 A 
HETATM   13  C   UNL     1       7.909   2.721  10.925  1.00  0.00     0.107 A 
HETATM   14  N   UNL     1       7.769   1.390  11.023  1.00  0.00    -0.311 N 
HETATM   15  N   UNL     1       7.513   0.659   9.891  1.00  0.00    -0.290 N 
ATOM     16  HN  UNL     1       7.852   0.928  11.928  1.00  0.00     0.186 HD
ATOM     17  HN  UNL     1       7.403  -0.352   9.963  1.00  0.00     0.188 HD
ENDBRANCH   8  10
ENDBRANCH   7   8
ENDBRANCH   5   7
BRANCH   1  18
HETATM   18  C   UNL     1       5.348  -1.067   2.764  1.00  0.00     0.287 C 
BRANCH  18  19
HETATM   19  C   UNL     1       4.805   0.240   2.187  1.00  0.00     0.170 C 
BRANCH  19  20
HETATM   20  S   UNL     1       5.429   0.555   0.547  1.00  0.00     0.145 S 
HETATM   21  O   UNL     1       4.890  -0.463  -0.333  1.00  0.00    -0.228 OA
HETATM   22  O   UNL     1       6.851   0.836   0.608  1.00  0.00    -0.228 OA
BRANCH  20  23
HETATM   23  C   UNL     1       4.644   2.099   0.121  1.00  0.00     0.136 C 
HETATM   24  C   UNL     1       4.991   2.496  -1.299  1.00  0.00     0.021 C 
ENDBRANCH  20  23
ENDBRANCH  19  20
ENDBRANCH  18  19
ENDBRANCH   1  18
TORSDOF 7
