REMARK  6 active torsions:
REMARK  status: ('A' for Active; 'I' for Inactive)
REMARK    1  A    between atoms: C_2  and  C_3 
REMARK    2  A    between atoms: C_3  and  N_5 
REMARK       I    between atoms: N_5  and  C_6 
REMARK    3  A    between atoms: C_6  and  C_8 
REMARK    4  A    between atoms: C_8  and  N_9 
REMARK    5  A    between atoms: C_11  and  N_19 
REMARK    6  A    between atoms: C_13  and  C_14 
REMARK       I    between atoms: C_14  and  N_16 
ROOT
HETATM    1  N   UNL     1       7.205  -2.997  -2.671  1.00  0.00    -0.313 N 
HETATM    2  C   UNL     1       7.436  -4.291  -2.219  1.00  0.00     0.130 A 
HETATM    3  C   UNL     1       7.791  -5.259  -3.078  1.00  0.00     0.119 A 
HETATM    4  C   UNL     1       7.940  -4.966  -4.486  1.00  0.00     0.060 A 
HETATM    5  C   UNL     1       7.716  -3.728  -4.968  1.00  0.00     0.102 A 
HETATM    6  C   UNL     1       7.294  -2.642  -4.020  1.00  0.00     0.263 A 
HETATM    7  O   UNL     1       7.021  -1.511  -4.424  1.00  0.00    -0.267 OA
ENDROOT
BRANCH   1   8
HETATM    8  C   UNL     1       6.731  -1.988  -1.725  1.00  0.00     0.234 C 
BRANCH   8   9
HETATM    9  C   UNL     1       5.205  -2.020  -1.684  1.00  0.00     0.236 C 
HETATM   10  N   UNL     1       4.593  -1.166  -2.579  1.00  0.00    -0.355 N 
HETATM   11  H   UNL     1       5.162  -0.780  -3.329  1.00  0.00     0.162 HD
HETATM   12  O   UNL     1       4.591  -2.800  -0.960  1.00  0.00    -0.272 OA
BRANCH  10  13
HETATM   13  C   UNL     1       3.143  -1.075  -2.687  1.00  0.00     0.080 C 
HETATM   14  C   UNL     1       2.600  -2.159  -3.618  1.00  0.00     0.032 C 
BRANCH  13  15
HETATM   15  C   UNL     1       2.716   0.316  -3.178  1.00  0.00     0.020 C 
HETATM   16  C   UNL     1       3.211   1.439  -2.275  1.00  0.00     0.007 C 
ENDBRANCH  13  15
ENDBRANCH  10  13
ENDBRANCH   8   9
ENDBRANCH   1   8
BRANCH   3  17
HETATM   17  N   UNL     1       8.008  -6.605  -2.543  1.00  0.00    -0.114 N 
HETATM   18  O   UNL     1       8.290  -7.496  -3.356  1.00  0.00    -0.532 OA
HETATM   19  O   UNL     1       7.906  -6.777  -1.320  1.00  0.00    -0.532 OA
ENDBRANCH   3  17
BRANCH   5  20
HETATM   20  C   UNL     1       7.891  -3.525  -6.433  1.00  0.00     0.255 C 
HETATM   21  O   UNL     1       8.209  -4.432  -7.194  1.00  0.00    -0.268 OA
HETATM   22  N   UNL     1       7.683  -2.269  -6.905  1.00  0.00    -0.366 N 
HETATM   23  H   UNL     1       7.403  -1.499  -6.303  1.00  0.00     0.159 HD
HETATM   24  H   UNL     1       7.784  -2.102  -7.898  1.00  0.00     0.159 HD
ENDBRANCH   5  20
TORSDOF 6
