REMARK  5 active torsions:
REMARK  status: ('A' for Active; 'I' for Inactive)
REMARK    1  A    between atoms: S_2  and  N_5 
REMARK    2  A    between atoms: C_9  and  C_11 
REMARK       I    between atoms: C_11  and  N_13 
REMARK    3  A    between atoms: N_13  and  C_14 
REMARK    4  A    between atoms: C_14  and  C_15 
REMARK    5  A    between atoms: C_15  and  C_16 
ROOT
HETATM    1  C   UNL     1       5.505  -1.786   2.773  1.00  0.00     0.223 C 
HETATM    2  O   UNL     1       6.153  -2.795   3.033  1.00  0.00    -0.273 OA
HETATM    3  N   UNL     1       5.836  -0.530   3.237  1.00  0.00    -0.360 N 
HETATM    4  H   UNL     1       5.280   0.273   2.960  1.00  0.00     0.162 HD
ENDROOT
BRANCH   1   5
HETATM    5  C   UNL     1       4.293  -1.791   1.868  1.00  0.00     0.096 C 
HETATM    6  C   UNL     1       3.628  -3.166   1.783  1.00  0.00     0.017 C 
HETATM    7  C   UNL     1       2.428  -3.113   0.840  1.00  0.00     0.021 C 
HETATM    8  C   UNL     1       2.772  -2.512  -0.524  1.00  0.00     0.135 C 
HETATM    9  N   UNL     1       3.526  -1.230  -0.412  1.00  0.00    -0.310 N 
HETATM   10  C   UNL     1       4.719  -1.359   0.470  1.00  0.00     0.149 C 
BRANCH   9  11
HETATM   11  S   UNL     1       2.640   0.212  -0.251  1.00  0.00     0.224 S 
HETATM   12  C   UNL     1       1.998   0.439  -1.896  1.00  0.00     0.186 C 
HETATM   13  O   UNL     1       3.582   1.284   0.005  1.00  0.00    -0.206 OA
HETATM   14  O   UNL     1       1.539  -0.034   0.650  1.00  0.00    -0.206 OA
ENDBRANCH   9  11
ENDBRANCH   1   5
BRANCH   3  15
HETATM   15  C   UNL     1       6.962  -0.345   4.129  1.00  0.00     0.128 C 
BRANCH  15  16
HETATM   16  C   UNL     1       7.072   1.080   4.659  1.00  0.00     0.076 C 
BRANCH  16  17
HETATM   17  C   UNL     1       8.296   1.201   5.525  1.00  0.00     0.010 A 
HETATM   18  C   UNL     1       9.524   1.549   4.967  1.00  0.00     0.025 A 
HETATM   19  C   UNL     1      10.655   1.539   5.776  1.00  0.00     0.003 A 
HETATM   20  C   UNL     1      10.531   1.184   7.114  1.00  0.00     0.017 A 
HETATM   21  C   UNL     1       9.273   0.861   7.591  1.00  0.00     0.088 A 
HETATM   22  N   UNL     1       8.158   0.861   6.829  1.00  0.00    -0.369 N 
ATOM     23  HN  UNL     1       7.248   0.615   7.220  1.00  0.00     0.165 HD
ENDBRANCH  16  17
ENDBRANCH  15  16
ENDBRANCH   3  15
TORSDOF 5
