REMARK  5 active torsions:
REMARK  status: ('A' for Active; 'I' for Inactive)
REMARK    1  A    between atoms: C_2  and  C_5 
REMARK    2  A    between atoms: C_8  and  C_9 
REMARK    3  A    between atoms: C_9  and  C_10 
REMARK    4  A    between atoms: C_10  and  N_11 
REMARK       I    between atoms: N_11  and  C_12 
REMARK    5  A    between atoms: C_12  and  C_14 
ROOT
HETATM    1  C   UNL     1       2.910  -0.489   1.447  1.00  0.00     0.024 A 
HETATM    2  C   UNL     1       3.491   0.237   2.473  1.00  0.00     0.077 A 
HETATM    3  S   UNL     1       3.859  -0.782   3.798  1.00  0.00    -0.087 SA
HETATM    4  C   UNL     1       3.224  -2.122   2.929  1.00  0.00     0.052 A 
HETATM    5  N   UNL     1       2.750  -1.839   1.734  1.00  0.00    -0.356 N 
ATOM      6  HN  UNL     1       2.323  -2.518   1.104  1.00  0.00     0.166 HD
ENDROOT
BRANCH   4   7
HETATM    7  C   UNL     1       3.234  -3.482   3.559  1.00  0.00     0.084 C 
BRANCH   7   8
HETATM    8  C   UNL     1       2.638  -4.551   2.644  1.00  0.00     0.129 C 
BRANCH   8   9
HETATM    9  N   UNL     1       2.643  -5.867   3.264  1.00  0.00    -0.360 N 
HETATM   10  C   UNL     1       3.750  -6.679   3.212  1.00  0.00     0.221 C 
HETATM   11  O   UNL     1       4.800  -6.378   2.660  1.00  0.00    -0.273 OA
HETATM   12  H   UNL     1       1.838  -6.156   3.802  1.00  0.00     0.162 HD
BRANCH  10  13
HETATM   13  C   UNL     1       3.594  -7.977   3.929  1.00  0.00     0.078 A 
HETATM   14  C   UNL     1       4.634  -8.388   4.947  1.00  0.00     0.015 A 
HETATM   15  C   UNL     1       4.535  -9.126   3.644  1.00  0.00     0.015 A 
ENDBRANCH  10  13
ENDBRANCH   8   9
ENDBRANCH   7   8
ENDBRANCH   4   7
BRANCH   1  16
HETATM   16  C   UNL     1       2.449   0.054   0.100  1.00  0.00    -0.008 C 
HETATM   17  C   UNL     1       3.625   0.728  -0.636  1.00  0.00     0.021 C 
HETATM   18  C   UNL     1       1.326   1.089   0.305  1.00  0.00     0.021 C 
HETATM   19  C   UNL     1       1.904  -1.071  -0.805  1.00  0.00     0.021 C 
ENDBRANCH   1  16
TORSDOF 5
