REMARK  7 active torsions:
REMARK  status: ('A' for Active; 'I' for Inactive)
REMARK    1  A    between atoms: O_2  and  C_3 
REMARK    2  A    between atoms: C_3  and  C_4 
REMARK    3  A    between atoms: C_4  and  N_5 
REMARK    4  A    between atoms: C_8  and  C_13 
REMARK       I    between atoms: C_13  and  N_15 
REMARK    5  A    between atoms: N_15  and  C_16 
REMARK    6  A    between atoms: C_16  and  C_17 
REMARK    7  A    between atoms: N_20  and  C_22 
ROOT
HETATM    1  C   UNL     1       4.489   4.613   3.975  1.00  0.00     0.269 C 
HETATM    2  O   UNL     1       5.054   5.230   4.865  1.00  0.00    -0.266 OA
HETATM    3  N   UNL     1       3.470   5.115   3.195  1.00  0.00    -0.355 N 
HETATM    4  H   UNL     1       3.100   4.509   2.467  1.00  0.00     0.162 HD
ENDROOT
BRANCH   1   5
HETATM    5  C   UNL     1       4.888   3.164   3.666  1.00  0.00     0.116 A 
HETATM    6  N   UNL     1       4.296   2.538   2.691  1.00  0.00    -0.290 N 
HETATM    7  N   UNL     1       4.678   1.223   2.467  1.00  0.00    -0.255 N 
ATOM      8  HN  UNL     1       3.585   2.992   2.118  1.00  0.00     0.187 HD
HETATM    9  C   UNL     1       5.571   0.522   3.272  1.00  0.00     0.262 A 
HETATM   10  C   UNL     1       6.240   1.302   4.331  1.00  0.00     0.078 A 
HETATM   11  O   UNL     1       5.834  -0.673   3.157  1.00  0.00    -0.267 OA
HETATM   12  C   UNL     1       5.930   2.582   4.534  1.00  0.00     0.042 A 
BRANCH   7  13
HETATM   13  C   UNL     1       3.988   0.513   1.395  1.00  0.00     0.178 C 
BRANCH  13  14
HETATM   14  C   UNL     1       2.729  -0.192   1.893  1.00  0.00     0.189 C 
BRANCH  14  15
HETATM   15  O   UNL     1       2.092  -0.856   0.798  1.00  0.00    -0.394 OA
HETATM   16  C   UNL     1       0.912  -1.530   1.217  1.00  0.00     0.201 C 
ENDBRANCH  14  15
ENDBRANCH  13  14
ENDBRANCH   7  13
ENDBRANCH   1   5
BRANCH   3  17
HETATM   17  C   UNL     1       2.978   6.465   3.386  1.00  0.00     0.129 C 
BRANCH  17  18
HETATM   18  C   UNL     1       1.848   6.818   2.429  1.00  0.00     0.033 C 
HETATM   19  C   UNL     1       2.261   6.811   0.959  1.00  0.00     0.038 C 
HETATM   20  C   UNL     1       1.510   7.976   0.324  1.00  0.00     0.273 C 
HETATM   21  N   UNL     1       0.621   8.538   1.356  1.00  0.00     0.093 N 
HETATM   22  C   UNL     1       1.301   8.229   2.628  1.00  0.00     0.279 C 
BRANCH  21  23
HETATM   23  C   UNL     1      -0.748   7.985   1.281  1.00  0.00     0.223 A 
HETATM   24  C   UNL     1      -1.599   8.302   0.078  1.00  0.00     0.038 A 
HETATM   25  C   UNL     1      -1.926   8.914   1.405  1.00  0.00     0.038 A 
ENDBRANCH  21  23
ENDBRANCH  17  18
ENDBRANCH   3  17
TORSDOF 7
