REMARK  7 active torsions:
REMARK  status: ('A' for Active; 'I' for Inactive)
REMARK    1  A    between atoms: C_2  and  N_3 
REMARK    2  A    between atoms: C_2  and  C_15 
REMARK    3  A    between atoms: N_3  and  C_4 
REMARK    4  A    between atoms: C_4  and  C_5 
REMARK       I    between atoms: C_5  and  N_7 
REMARK    5  A    between atoms: N_7  and  C_8 
REMARK    6  A    between atoms: C_8  and  C_12 
REMARK    7  A    between atoms: C_15  and  N_17 
ROOT
HETATM    1  C   UNL     1       3.357  -2.092   4.987  1.00  0.00     0.122 C 
HETATM    2  C   UNL     1       4.804  -1.801   5.416  1.00  0.00     0.055 C 
HETATM    3  C   UNL     1       2.417  -1.859   6.120  1.00  0.00     0.091 C 
HETATM    4  N   UNL     1       1.682  -1.716   7.007  1.00  0.00    -0.195 NA
ENDROOT
BRANCH   1   5
HETATM    5  N   UNL     1       2.987  -1.311   3.818  1.00  0.00    -0.338 N 
HETATM    6  C   UNL     1       2.954   0.064   3.794  1.00  0.00     0.247 C 
HETATM    7  O   UNL     1       3.212   0.776   4.757  1.00  0.00    -0.272 OA
HETATM    8  H   UNL     1       2.759  -1.759   2.936  1.00  0.00     0.164 HD
BRANCH   6   9
HETATM    9  C   UNL     1       2.524   0.641   2.440  1.00  0.00     0.372 C 
BRANCH   9  10
HETATM   10  N   UNL     1       2.881  -0.307   1.364  1.00  0.00     0.098 N 
HETATM   11  H   UNL     1       3.896  -0.437   1.381  1.00  0.00     0.317 HD
BRANCH  10  12
HETATM   12  C   UNL     1       2.496   0.128  -0.001  1.00  0.00     0.241 C 
HETATM   13  C   UNL     1       3.273   1.401  -0.376  1.00  0.00     0.045 C 
BRANCH  12  14
HETATM   14  C   UNL     1       0.962   0.270  -0.249  1.00  0.00     0.136 C 
HETATM   15  C   UNL     1       0.627   0.654  -1.698  1.00  0.00     0.036 C 
BRANCH  14  16
HETATM   16  N   UNL     1       0.224  -0.940   0.122  1.00  0.00    -0.297 N 
HETATM   17  C   UNL     1      -0.732  -1.040   1.097  1.00  0.00     0.112 A 
HETATM   18  C   UNL     1      -1.199  -2.331   1.047  1.00  0.00     0.037 A 
HETATM   19  C   UNL     1      -0.479  -2.929  -0.003  1.00  0.00     0.108 A 
HETATM   20  N   UNL     1       0.388  -2.087  -0.571  1.00  0.00    -0.310 N 
ATOM     21  HN  UNL     1       1.025  -2.268  -1.347  1.00  0.00     0.186 HD
ENDBRANCH  14  16
ENDBRANCH  12  14
ENDBRANCH  10  12
ENDBRANCH   9  10
ENDBRANCH   6   9
ENDBRANCH   1   5
BRANCH   1  22
HETATM   22  C   UNL     1       3.205  -3.596   4.735  1.00  0.00     0.028 A 
HETATM   23  C   UNL     1       3.962  -4.291   3.622  1.00  0.00     0.009 A 
HETATM   24  C   UNL     1       2.462  -4.221   3.566  1.00  0.00     0.009 A 
ENDBRANCH   1  22
TORSDOF 7
