REMARK  8 active torsions:
REMARK  status: ('A' for Active; 'I' for Inactive)
REMARK    1  A    between atoms: C_2  and  N_3 
REMARK    2  A    between atoms: N_4  and  C_16 
REMARK    3  A    between atoms: C_13  and  C_24 
REMARK    4  A    between atoms: C_16  and  C_19 
REMARK    5  A    between atoms: C_19  and  C_23 
REMARK    6  A    between atoms: C_19  and  C_25 
REMARK    7  A    between atoms: C_24  and  O_27 
REMARK    8  A    between atoms: C_25  and  O_28 
ROOT
HETATM    1  C   UNL     1       0.448  -0.617  -0.383  1.00  0.00     0.117 A 
HETATM    2  C   UNL     1      -0.819  -1.259  -0.382  1.00  0.00     0.115 A 
HETATM    3  N   UNL     1       1.750   1.155  -0.422  1.00  0.00    -0.327 N 
HETATM    4  C   UNL     1       0.447   0.757  -0.579  1.00  0.00     0.140 A 
HETATM    5  N   UNL     1       1.755  -1.063  -0.225  1.00  0.00    -0.346 N 
ATOM      6  HN  UNL     1       2.072  -2.028  -0.133  1.00  0.00     0.167 HD
HETATM    7  C   UNL     1       2.498   0.027  -0.220  1.00  0.00     0.185 A 
HETATM    8  N   UNL     1      -1.912  -0.455  -0.572  1.00  0.00    -0.341 N 
ATOM      9  HN  UNL     1      -2.849  -0.858  -0.563  1.00  0.00     0.167 HD
HETATM   10  N   UNL     1      -0.606   1.560  -0.793  1.00  0.00    -0.336 N 
ATOM     11  HN  UNL     1      -0.543   2.566  -0.951  1.00  0.00     0.168 HD
HETATM   12  C   UNL     1      -1.750   0.866  -0.771  1.00  0.00     0.183 A 
ENDROOT
BRANCH   2  13
HETATM   13  N   UNL     1      -1.049  -2.633  -0.236  1.00  0.00    -0.258 NA
HETATM   14  C   UNL     1      -0.046  -3.575  -0.757  1.00  0.00     0.065 C 
HETATM   15  C   UNL     1      -0.210  -3.446  -2.291  1.00  0.00     0.028 C 
HETATM   16  C   UNL     1      -0.690  -4.915  -0.329  1.00  0.00     0.022 C 
HETATM   17  C   UNL     1      -1.706  -3.062  -2.439  1.00  0.00     0.029 C 
HETATM   18  C   UNL     1      -2.213  -3.168  -0.977  1.00  0.00     0.071 C 
HETATM   19  C   UNL     1      -2.195  -4.633  -0.491  1.00  0.00     0.022 C 
BRANCH  17  20
HETATM   20  C   UNL     1      -2.456  -3.852  -3.492  1.00  0.00     0.170 C 
BRANCH  20  21
HETATM   21  O   UNL     1      -1.901  -3.578  -4.776  1.00  0.00    -0.400 OA
HETATM   22  H   UNL     1      -1.848  -2.611  -4.878  1.00  0.00     0.209 HD
ENDBRANCH  20  21
ENDBRANCH  17  20
ENDBRANCH   2  13
BRANCH   3  23
HETATM   23  C   UNL     1       2.124   2.508  -0.077  1.00  0.00     0.138 C 
BRANCH  23  24
HETATM   24  C   UNL     1       3.176   3.251  -0.930  1.00  0.00     0.034 C 
BRANCH  24  25
HETATM   25  C   UNL     1       2.795   3.384  -2.428  1.00  0.00     0.019 C 
HETATM   26  C   UNL     1       3.844   4.129  -3.266  1.00  0.00     0.172 C 
HETATM   27  O   UNL     1       3.212   5.307  -3.777  1.00  0.00    -0.391 OA
HETATM   28  C   UNL     1       1.822   5.007  -3.905  1.00  0.00     0.168 C 
HETATM   29  C   UNL     1       1.500   4.141  -2.708  1.00  0.00     0.033 C 
ENDBRANCH  24  25
BRANCH  24  30
HETATM   30  C   UNL     1       3.425   4.618  -0.250  1.00  0.00     0.170 C 
BRANCH  30  31
HETATM   31  O   UNL     1       3.966   4.417   1.053  1.00  0.00    -0.400 OA
HETATM   32  H   UNL     1       3.228   4.358   1.685  1.00  0.00     0.209 HD
ENDBRANCH  30  31
ENDBRANCH  24  30
ENDBRANCH  23  24
ENDBRANCH   3  23
TORSDOF 8
