REMARK  6 active torsions:
REMARK  status: ('A' for Active; 'I' for Inactive)
REMARK    1  A    between atoms: C_2  and  N_3 
REMARK       I    between atoms: N_3  and  C_4 
REMARK    2  A    between atoms: C_4  and  C_6 
REMARK    3  A    between atoms: C_6  and  N_7 
REMARK    4  A    between atoms: C_10  and  C_11 
REMARK    5  A    between atoms: C_11  and  N_12 
REMARK    6  A    between atoms: N_16  and  C_17 
ROOT
HETATM    1  N   UNL     1       6.453  -0.286  -2.966  1.00  0.00    -0.256 N 
HETATM    2  C   UNL     1       7.089   0.946  -3.044  1.00  0.00     0.273 A 
HETATM    3  O   UNL     1       6.494   2.021  -3.062  1.00  0.00    -0.266 OA
HETATM    4  C   UNL     1       8.563   0.908  -3.074  1.00  0.00     0.110 A 
HETATM    5  C   UNL     1       9.188  -0.270  -3.014  1.00  0.00     0.123 A 
HETATM    6  N   UNL     1       8.503  -1.458  -2.918  1.00  0.00    -0.303 N 
HETATM    7  C   UNL     1       7.103  -1.521  -2.939  1.00  0.00     0.332 A 
HETATM    8  O   UNL     1       6.487  -2.588  -2.906  1.00  0.00    -0.246 OA
ENDROOT
BRANCH   1   9
HETATM    9  C   UNL     1       4.998  -0.293  -2.969  1.00  0.00     0.239 C 
BRANCH   9  10
HETATM   10  C   UNL     1       4.454  -0.302  -4.400  1.00  0.00     0.236 C 
HETATM   11  N   UNL     1       3.072  -0.256  -4.459  1.00  0.00    -0.360 N 
HETATM   12  H   UNL     1       2.533  -0.313  -3.604  1.00  0.00     0.162 HD
HETATM   13  O   UNL     1       5.172  -0.335  -5.397  1.00  0.00    -0.272 OA
BRANCH  11  14
HETATM   14  C   UNL     1       2.353  -0.252  -5.716  1.00  0.00     0.118 C 
HETATM   15  C   UNL     1       2.059  -1.660  -6.202  1.00  0.00     0.026 C 
ENDBRANCH  11  14
ENDBRANCH   9  10
ENDBRANCH   1   9
BRANCH   4  16
HETATM   16  C   UNL     1       9.375   2.192  -3.121  1.00  0.00    -0.030 C 
BRANCH  16  17
HETATM   17  N   UNL     1      10.048   3.257  -3.161  1.00  0.00    -0.365 N 
ATOM     18  HN2 UNL     1       9.488   2.404  -3.171  1.00  0.00     0.165 HD
ATOM     19  HN1 UNL     1      10.593   4.119  -3.193  1.00  0.00     0.165 HD
ENDBRANCH  16  17
ENDBRANCH   4  16
BRANCH   6  20
HETATM   20  C   UNL     1       9.274  -2.681  -2.841  1.00  0.00     0.094 A 
HETATM   21  C   UNL     1       9.186  -3.562  -1.618  1.00  0.00     0.028 A 
HETATM   22  C   UNL     1      10.467  -2.855  -1.929  1.00  0.00     0.028 A 
ENDBRANCH   6  20
TORSDOF 6
