REMARK  4 active torsions:
REMARK  status: ('A' for Active; 'I' for Inactive)
REMARK    1  A    between atoms: C_2  and  C_3 
REMARK    2  A    between atoms: C_2  and  N_12 
REMARK    3  A    between atoms: C_3  and  C_4 
REMARK       I    between atoms: N_12  and  C_13 
REMARK       I    between atoms: C_13  and  N_15 
REMARK    4  A    between atoms: N_15  and  C_16 
ROOT
HETATM    1  C   UNL     1       0.898  -0.417   0.274  1.00  0.00     0.032 C 
HETATM    2  C   UNL     1       2.408  -0.169   0.195  1.00  0.00     0.086 C 
ENDROOT
BRANCH   2   3
HETATM    3  C   UNL     1       2.804   1.146   0.913  1.00  0.00     0.068 C 
BRANCH   3   4
HETATM    4  C   UNL     1       2.293   2.399   0.271  1.00  0.00    -0.001 A 
HETATM    5  C   UNL     1       2.865   3.132  -0.811  1.00  0.00     0.037 A 
HETATM    6  C   UNL     1       4.087   2.849  -1.601  1.00  0.00     0.071 C 
HETATM    7  N   UNL     1       2.152   4.229  -1.092  1.00  0.00    -0.265 N 
HETATM    8  O   UNL     1       1.109   4.242  -0.192  1.00  0.00    -0.242 OA
ATOM      9  HN  UNL     1       2.342   4.915  -1.823  1.00  0.00     0.194 HD
HETATM   10  C   UNL     1       1.192   3.157   0.619  1.00  0.00     0.081 A 
HETATM   11  C   UNL     1       0.142   3.052   1.651  1.00  0.00     0.079 C 
ENDBRANCH   3   4
ENDBRANCH   2   3
BRANCH   2  12
HETATM   12  N   UNL     1       3.090  -1.337   0.774  1.00  0.00    -0.339 N 
HETATM   13  C   UNL     1       4.458  -1.473   0.707  1.00  0.00     0.316 C 
HETATM   14  O   UNL     1       5.202  -0.660   0.179  1.00  0.00    -0.247 OA
HETATM   15  N   UNL     1       4.888  -2.616   1.337  1.00  0.00    -0.339 N 
HETATM   16  H   UNL     1       4.209  -3.073   1.927  1.00  0.00     0.164 HD
HETATM   17  H   UNL     1       2.603  -2.219   0.700  1.00  0.00     0.164 HD
BRANCH  15  18
HETATM   18  C   UNL     1       6.325  -2.880   1.526  1.00  0.00     0.086 C 
HETATM   19  C   UNL     1       6.660  -4.176   2.309  1.00  0.00     0.025 C 
HETATM   20  C   UNL     1       7.801  -3.381   2.982  1.00  0.00     0.004 C 
HETATM   21  C   UNL     1       6.967  -2.112   2.711  1.00  0.00     0.025 C 
ENDBRANCH  15  18
ENDBRANCH   2  12
TORSDOF 4
