REMARK  4 active torsions:
REMARK  status: ('A' for Active; 'I' for Inactive)
REMARK    1  A    between atoms: C_2  and  C_5 
REMARK    2  A    between atoms: C_10  and  N_11 
REMARK       I    between atoms: N_11  and  C_12 
REMARK    3  A    between atoms: C_12  and  C_14 
REMARK    4  A    between atoms: C_14  and  N_15 
ROOT
HETATM    1  N   UNL     1       1.309  -2.183   1.785  1.00  0.00    -0.354 N 
HETATM    2  C   UNL     1       0.884  -3.189   2.638  1.00  0.00     0.237 C 
HETATM    3  O   UNL     1       1.621  -3.704   3.475  1.00  0.00    -0.272 OA
HETATM    4  H   UNL     1       0.724  -1.954   0.987  1.00  0.00     0.162 HD
ENDROOT
BRANCH   1   5
HETATM    5  C   UNL     1       2.691  -1.714   1.793  1.00  0.00     0.097 C 
HETATM    6  C   UNL     1       2.829  -0.226   1.411  1.00  0.00     0.116 C 
HETATM    7  C   UNL     1       4.306   0.190   1.516  1.00  0.00     0.015 C 
HETATM    8  C   UNL     1       5.231  -0.694   0.681  1.00  0.00     0.001 C 
HETATM    9  C   UNL     1       5.066  -2.170   1.024  1.00  0.00     0.002 C 
HETATM   10  C   UNL     1       3.607  -2.624   0.955  1.00  0.00     0.026 C 
BRANCH   6  11
HETATM   11  C   UNL     1       2.216   0.128   0.056  1.00  0.00     0.393 C 
HETATM   12  F   UNL     1       3.048   0.846  -0.728  1.00  0.00    -0.171 F 
HETATM   13  F   UNL     1       1.101   0.877   0.236  1.00  0.00    -0.171 F 
HETATM   14  F   UNL     1       1.831  -0.959  -0.648  1.00  0.00    -0.171 F 
ENDBRANCH   6  11
ENDBRANCH   1   5
BRANCH   2  15
HETATM   15  C   UNL     1      -0.557  -3.607   2.479  1.00  0.00     0.252 C 
BRANCH  15  16
HETATM   16  N   UNL     1      -1.332  -3.239   3.641  1.00  0.00    -0.278 N 
HETATM   17  C   UNL     1      -1.202  -3.697   4.916  1.00  0.00     0.201 A 
HETATM   18  N   UNL     1      -2.131  -3.156   5.671  1.00  0.00    -0.346 N 
HETATM   19  C   UNL     1      -2.819  -2.366   4.795  1.00  0.00     0.198 A 
ATOM     20  HN  UNL     1      -2.298  -3.293   6.668  1.00  0.00     0.167 HD
HETATM   21  N   UNL     1      -2.374  -2.390   3.535  1.00  0.00    -0.293 N 
ATOM     22  HN  UNL     1      -2.728  -1.898   2.714  1.00  0.00     0.188 HD
ENDBRANCH  15  16
ENDBRANCH   2  15
TORSDOF 4
