REMARK  5 active torsions:
REMARK  status: ('A' for Active; 'I' for Inactive)
REMARK    1  A    between atoms: O_2  and  C_3 
REMARK    2  A    between atoms: C_3  and  C_4 
REMARK    3  A    between atoms: C_4  and  N_5 
REMARK    4  A    between atoms: C_8  and  C_13 
REMARK       I    between atoms: C_13  and  N_15 
REMARK    5  A    between atoms: N_15  and  C_16 
ROOT
HETATM    1  N   UNL     1       4.884   0.667  -2.665  1.00  0.00    -0.255 N 
HETATM    2  N   UNL     1       5.147   1.992  -2.989  1.00  0.00    -0.290 N 
ATOM      3  HN  UNL     1       5.539   2.641  -2.307  1.00  0.00     0.187 HD
HETATM    4  C   UNL     1       4.870   2.364  -4.202  1.00  0.00     0.116 A 
HETATM    5  C   UNL     1       4.280   1.498  -5.242  1.00  0.00     0.042 A 
HETATM    6  C   UNL     1       4.051   0.228  -4.911  1.00  0.00     0.078 A 
HETATM    7  C   UNL     1       4.355  -0.264  -3.553  1.00  0.00     0.262 A 
HETATM    8  O   UNL     1       4.125  -1.440  -3.288  1.00  0.00    -0.267 OA
ENDROOT
BRANCH   4   9
HETATM    9  C   UNL     1       5.141   3.803  -4.626  1.00  0.00     0.269 C 
HETATM   10  O   UNL     1       5.314   4.057  -5.810  1.00  0.00    -0.266 OA
HETATM   11  N   UNL     1       5.140   4.731  -3.606  1.00  0.00    -0.351 N 
HETATM   12  H   UNL     1       5.126   4.374  -2.655  1.00  0.00     0.163 HD
BRANCH  11  13
HETATM   13  C   UNL     1       5.384   6.150  -3.869  1.00  0.00     0.084 C 
HETATM   14  C   UNL     1       6.884   6.452  -3.752  1.00  0.00     0.025 C 
HETATM   15  C   UNL     1       7.354   7.831  -4.227  1.00  0.00     0.002 C 
HETATM   16  C   UNL     1       6.743   8.310  -5.545  1.00  0.00     0.000 C 
HETATM   17  C   UNL     1       5.613   9.333  -5.398  1.00  0.00     0.000 C 
HETATM   18  C   UNL     1       4.307   8.861  -4.752  1.00  0.00     0.000 C 
HETATM   19  C   UNL     1       4.416   8.501  -3.268  1.00  0.00     0.002 C 
HETATM   20  C   UNL     1       4.493   7.002  -2.958  1.00  0.00     0.025 C 
ENDBRANCH  11  13
ENDBRANCH   4   9
BRANCH   1  21
HETATM   21  C   UNL     1       5.119   0.271  -1.278  1.00  0.00     0.178 C 
BRANCH  21  22
HETATM   22  C   UNL     1       6.248  -0.749  -1.115  1.00  0.00     0.189 C 
BRANCH  22  23
HETATM   23  O   UNL     1       6.387  -1.075   0.273  1.00  0.00    -0.394 OA
HETATM   24  C   UNL     1       7.369  -2.084   0.473  1.00  0.00     0.201 C 
ENDBRANCH  22  23
ENDBRANCH  21  22
ENDBRANCH   1  21
TORSDOF 5
