REMARK  3 active torsions:
REMARK  status: ('A' for Active; 'I' for Inactive)
REMARK    1  A    between atoms: C_6  and  N_7 
REMARK       I    between atoms: N_7  and  C_8 
REMARK       I    between atoms: C_8  and  N_10 
REMARK    2  A    between atoms: N_10  and  C_11 
REMARK    3  A    between atoms: C_14  and  O_15 
ROOT
HETATM    1  N   UNL     1       4.786  -6.355  -4.270  1.00  0.00    -0.295 N 
HETATM    2  C   UNL     1       4.816  -7.056  -3.094  1.00  0.00     0.322 C 
HETATM    3  O   UNL     1       5.274  -8.196  -3.072  1.00  0.00    -0.247 OA
HETATM    4  N   UNL     1       4.341  -6.412  -2.003  1.00  0.00    -0.338 N 
HETATM    5  H   UNL     1       5.138  -6.887  -5.054  1.00  0.00     0.172 HD
HETATM    6  H   UNL     1       4.084  -5.442  -2.186  1.00  0.00     0.164 HD
ENDROOT
BRANCH   1   7
HETATM    7  C   UNL     1       4.430  -5.015  -4.498  1.00  0.00     0.109 A 
HETATM    8  C   UNL     1       4.515  -4.531  -5.798  1.00  0.00     0.049 A 
HETATM    9  C   UNL     1       4.162  -3.207  -6.049  1.00  0.00     0.006 A 
HETATM   10  C   UNL     1       3.743  -2.400  -4.998  1.00  0.00     0.025 A 
HETATM   11  C   UNL     1       3.702  -2.941  -3.721  1.00  0.00     0.007 A 
HETATM   12  C   UNL     1       3.323  -2.097  -2.541  1.00  0.00     0.068 C 
HETATM   13  N   UNL     1       4.032  -4.236  -3.466  1.00  0.00    -0.346 N 
ATOM     14  HN  UNL     1       3.981  -4.611  -2.519  1.00  0.00     0.167 HD
ENDBRANCH   1   7
BRANCH   4  15
HETATM   15  C   UNL     1       4.559  -6.762  -0.619  1.00  0.00     0.086 C 
HETATM   16  C   UNL     1       3.773  -7.960  -0.080  1.00  0.00     0.028 C 
HETATM   17  C   UNL     1       3.898  -8.004   1.453  1.00  0.00     0.034 C 
HETATM   18  C   UNL     1       5.339  -7.865   1.974  1.00  0.00     0.118 C 
HETATM   19  C   UNL     1       6.167  -6.801   1.248  1.00  0.00     0.034 C 
HETATM   20  C   UNL     1       6.037  -6.939  -0.261  1.00  0.00     0.028 C 
BRANCH  18  21
HETATM   21  O   UNL     1       5.310  -7.563   3.370  1.00  0.00    -0.396 OA
HETATM   22  H   UNL     1       5.213  -6.601   3.475  1.00  0.00     0.210 HD
ENDBRANCH  18  21
ENDBRANCH   4  15
TORSDOF 3
