REMARK  3 active torsions:
REMARK  status: ('A' for Active; 'I' for Inactive)
REMARK    1  A    between atoms: N_4  and  C_8 
REMARK    2  A    between atoms: C_10  and  C_11 
REMARK    3  A    between atoms: C_11  and  N_12 
ROOT
HETATM    1  C   UNL     1       1.958   1.414  -3.464  1.00  0.00     0.103 A 
HETATM    2  C   UNL     1       1.122   0.887  -4.451  1.00  0.00     0.057 A 
HETATM    3  C   UNL     1       0.511   1.717  -5.398  1.00  0.00    -0.026 A 
HETATM    4  C   UNL     1       0.773   3.082  -5.327  1.00  0.00     0.026 A 
HETATM    5  C   UNL     1       1.598   3.540  -4.316  1.00  0.00     0.090 A 
HETATM    6  N   UNL     1       2.177   2.742  -3.389  1.00  0.00    -0.352 N 
ATOM      7  HN  UNL     1       2.764   3.135  -2.653  1.00  0.00     0.166 HD
ENDROOT
BRANCH   1   8
HETATM    8  N   UNL     1       2.498   0.586  -2.513  1.00  0.00    -0.363 N 
HETATM    9  C   UNL     1       2.930   1.115  -1.219  1.00  0.00     0.155 C 
HETATM   10  C   UNL     1       2.531   0.083  -0.134  1.00  0.00     0.135 C 
HETATM   11  C   UNL     1       1.017   0.056   0.094  1.00  0.00     0.041 C 
HETATM   12  O   UNL     1       3.036  -1.241  -0.430  1.00  0.00    -0.383 OA
HETATM   13  C   UNL     1       2.677  -1.704  -1.744  1.00  0.00     0.188 C 
HETATM   14  C   UNL     1       3.090  -0.709  -2.838  1.00  0.00     0.150 C 
ENDBRANCH   1   8
BRANCH   3  15
HETATM   15  C   UNL     1      -0.380   1.136  -6.459  1.00  0.00     0.305 C 
BRANCH  15  16
HETATM   16  N   UNL     1      -1.723   1.704  -6.417  1.00  0.00     0.082 N 
HETATM   17  H   UNL     1      -2.142   1.483  -5.513  1.00  0.00     0.313 HD
HETATM   18  H   UNL     1      -2.297   1.244  -7.118  1.00  0.00     0.313 HD
ENDBRANCH  15  16
ENDBRANCH   3  15
TORSDOF 3
