REMARK  8 active torsions:
REMARK  status: ('A' for Active; 'I' for Inactive)
REMARK    1  A    between atoms: N_2  and  C_15 
REMARK    2  A    between atoms: C_4  and  N_8 
REMARK    3  A    between atoms: N_8  and  C_11 
REMARK    4  A    between atoms: N_14  and  C_24 
REMARK    5  A    between atoms: C_15  and  C_18 
REMARK    6  A    between atoms: C_18  and  C_23 
REMARK    7  A    between atoms: C_18  and  C_26 
REMARK    8  A    between atoms: C_26  and  O_28 
ROOT
HETATM    1  C   UNL     1       0.387  -0.761  -0.230  1.00  0.00     0.122 A 
HETATM    2  N   UNL     1       1.507   1.116  -0.344  1.00  0.00    -0.327 N 
HETATM    3  C   UNL     1       0.240   0.597  -0.455  1.00  0.00     0.140 A 
HETATM    4  C   UNL     1      -0.800  -1.538  -0.188  1.00  0.00     0.135 A 
HETATM    5  N   UNL     1       1.726  -1.080  -0.066  1.00  0.00    -0.346 N 
ATOM      6  HN  UNL     1       2.129  -2.005   0.083  1.00  0.00     0.167 HD
HETATM    7  C   UNL     1       2.365   0.067  -0.144  1.00  0.00     0.185 A 
HETATM    8  N   UNL     1      -1.970  -0.878  -0.442  1.00  0.00    -0.337 N 
ATOM      9  HN  UNL     1      -2.852  -1.389  -0.465  1.00  0.00     0.168 HD
HETATM   10  N   UNL     1      -0.893   1.281  -0.669  1.00  0.00    -0.336 N 
ATOM     11  HN  UNL     1      -0.945   2.289  -0.816  1.00  0.00     0.168 HD
HETATM   12  C   UNL     1      -1.951   0.453  -0.662  1.00  0.00     0.183 A 
ENDROOT
BRANCH   4  13
HETATM   13  N   UNL     1      -0.818  -2.920   0.079  1.00  0.00    -0.365 N 
HETATM   14  C   UNL     1      -0.250  -3.254   1.384  1.00  0.00     0.151 C 
BRANCH  13  15
HETATM   15  C   UNL     1      -2.021  -3.641  -0.401  1.00  0.00     0.089 C 
HETATM   16  C   UNL     1      -3.206  -3.606   0.580  1.00  0.00     0.060 C 
HETATM   17  C   UNL     1      -3.273  -4.834   1.492  1.00  0.00     0.221 C 
HETATM   18  N   UNL     1      -3.254  -6.100   0.736  1.00  0.00     0.092 N 
HETATM   19  C   UNL     1      -4.390  -4.706   2.530  1.00  0.00     0.043 C 
HETATM   20  C   UNL     1      -1.941  -6.193   0.062  1.00  0.00     0.275 C 
HETATM   21  C   UNL     1      -1.653  -5.047  -0.911  1.00  0.00     0.055 C 
BRANCH  18  22
HETATM   22  C   UNL     1      -4.339  -6.346  -0.231  1.00  0.00     0.268 C 
HETATM   23  C   UNL     1      -5.748  -6.433   0.339  1.00  0.00     0.037 C 
ENDBRANCH  18  22
ENDBRANCH  13  15
ENDBRANCH   4  13
BRANCH   2  24
HETATM   24  C   UNL     1       1.821   2.511  -0.135  1.00  0.00     0.138 C 
BRANCH  24  25
HETATM   25  C   UNL     1       2.777   3.176  -1.147  1.00  0.00     0.034 C 
BRANCH  25  26
HETATM   26  C   UNL     1       2.185   3.244  -2.580  1.00  0.00     0.019 C 
HETATM   27  C   UNL     1       3.127   3.893  -3.600  1.00  0.00     0.172 C 
HETATM   28  O   UNL     1       2.525   5.138  -3.969  1.00  0.00    -0.391 OA
HETATM   29  C   UNL     1       1.113   4.934  -3.911  1.00  0.00     0.168 C 
HETATM   30  C   UNL     1       0.895   4.053  -2.702  1.00  0.00     0.033 C 
ENDBRANCH  25  26
BRANCH  25  31
HETATM   31  C   UNL     1       3.181   4.557  -0.589  1.00  0.00     0.170 C 
BRANCH  31  32
HETATM   32  O   UNL     1       3.896   4.387   0.631  1.00  0.00    -0.400 OA
HETATM   33  H   UNL     1       3.261   4.439   1.367  1.00  0.00     0.209 HD
ENDBRANCH  31  32
ENDBRANCH  25  31
ENDBRANCH  24  25
ENDBRANCH   2  24
TORSDOF 8
