REMARK  3 active torsions:
REMARK  status: ('A' for Active; 'I' for Inactive)
REMARK    1  A    between atoms: C_2  and  C_3 
REMARK       I    between atoms: C_2  and  N_12 
REMARK    2  A    between atoms: C_3  and  N_4 
REMARK    3  A    between atoms: N_12  and  C_13 
ROOT
HETATM    1  O   UNL     1       2.591   1.036   0.353  1.00  0.00    -0.272 OA
HETATM    2  C   UNL     1       2.176  -0.047  -0.057  1.00  0.00     0.236 C 
HETATM    3  N   UNL     1       3.015  -1.115  -0.355  1.00  0.00    -0.346 N 
HETATM    4  H   UNL     1       2.601  -2.039  -0.437  1.00  0.00     0.163 HD
ENDROOT
BRANCH   2   5
HETATM    5  C   UNL     1       0.681  -0.383  -0.171  1.00  0.00     0.235 C 
BRANCH   5   6
HETATM    6  N   UNL     1      -0.227   0.726  -0.496  1.00  0.00    -0.301 N 
HETATM    7  C   UNL     1      -0.809   1.467   0.516  1.00  0.00     0.102 C 
HETATM    8  C   UNL     1      -1.791   2.340   0.276  1.00  0.00     0.092 C 
HETATM    9  C   UNL     1      -2.269   2.509  -1.107  1.00  0.00     0.250 C 
HETATM   10  O   UNL     1      -3.270   3.170  -1.358  1.00  0.00    -0.268 OA
HETATM   11  N   UNL     1      -1.537   1.868  -2.062  1.00  0.00    -0.275 N 
HETATM   12  C   UNL     1      -0.567   0.926  -1.830  1.00  0.00     0.329 C 
HETATM   13  H   UNL     1      -1.855   1.957  -3.014  1.00  0.00     0.173 HD
HETATM   14  O   UNL     1      -0.090   0.285  -2.761  1.00  0.00    -0.246 OA
ENDBRANCH   5   6
ENDBRANCH   2   5
BRANCH   3  15
HETATM   15  C   UNL     1       4.470  -1.107  -0.104  1.00  0.00     0.176 C 
HETATM   16  C   UNL     1       5.204  -0.119  -1.010  1.00  0.00     0.035 C 
HETATM   17  C   UNL     1       6.674   0.027  -0.613  1.00  0.00     0.004 C 
HETATM   18  C   UNL     1       7.597  -0.972  -1.298  1.00  0.00     0.020 C 
HETATM   19  C   UNL     1       6.981  -2.335  -1.567  1.00  0.00     0.122 C 
HETATM   20  N   UNL     1       6.255  -2.902  -0.450  1.00  0.00    -0.359 N 
HETATM   21  C   UNL     1       4.952  -2.582  -0.160  1.00  0.00     0.240 C 
HETATM   22  H   UNL     1       6.388  -3.902  -0.344  1.00  0.00     0.162 HD
HETATM   23  O   UNL     1       4.199  -3.505   0.176  1.00  0.00    -0.271 OA
ENDBRANCH   3  15
TORSDOF 3
