REMARK  5 active torsions:
REMARK  status: ('A' for Active; 'I' for Inactive)
REMARK    1  A    between atoms: O_2  and  C_3 
REMARK    2  A    between atoms: C_3  and  C_4 
REMARK    3  A    between atoms: C_4  and  O_5 
REMARK    4  A    between atoms: O_5  and  C_6 
REMARK    5  A    between atoms: C_9  and  N_10 
REMARK       I    between atoms: N_10  and  C_11 
REMARK       I    between atoms: C_11  and  N_13 
ROOT
HETATM    1  C   UNL     1       6.422  -0.744  -2.801  1.00  0.00     0.141 A 
HETATM    2  C   UNL     1       7.119   0.423  -3.055  1.00  0.00     0.058 A 
HETATM    3  C   UNL     1       8.456   0.334  -3.437  1.00  0.00     0.035 A 
HETATM    4  C   UNL     1       9.068  -0.911  -3.569  1.00  0.00     0.051 A 
HETATM    5  C   UNL     1       8.266  -2.024  -3.306  1.00  0.00     0.119 A 
HETATM    6  N   UNL     1       6.960  -1.975  -2.922  1.00  0.00    -0.345 N 
ATOM      7  HN  UNL     1       6.420  -2.820  -2.737  1.00  0.00     0.167 HD
ENDROOT
BRANCH   4   8
HETATM    8  N   UNL     1      10.417  -1.086  -3.984  1.00  0.00    -0.307 N 
HETATM    9  C   UNL     1      11.376  -0.099  -3.991  1.00  0.00     0.323 C 
HETATM   10  O   UNL     1      11.198   1.008  -3.484  1.00  0.00    -0.247 OA
HETATM   11  N   UNL     1      12.578  -0.392  -4.618  1.00  0.00    -0.333 N 
HETATM   12  C   UNL     1      13.013  -1.659  -5.222  1.00  0.00     0.137 C 
HETATM   13  C   UNL     1      13.569   0.694  -4.713  1.00  0.00     0.137 C 
HETATM   14  C   UNL     1      14.268  -2.229  -4.547  1.00  0.00     0.093 C 
HETATM   15  S   UNL     1      15.687  -1.081  -4.593  1.00  0.00    -0.166 SA
HETATM   16  C   UNL     1      14.841   0.391  -3.924  1.00  0.00     0.093 C 
HETATM   17  H   UNL     1      10.718  -2.036  -4.114  1.00  0.00     0.170 HD
ENDBRANCH   4   8
BRANCH   1  18
HETATM   18  O   UNL     1       5.080  -0.591  -2.532  1.00  0.00    -0.334 OA
BRANCH  18  19
HETATM   19  C   UNL     1       4.517  -1.643  -1.751  1.00  0.00     0.203 C 
BRANCH  19  20
HETATM   20  C   UNL     1       3.004  -1.425  -1.714  1.00  0.00     0.193 C 
BRANCH  20  21
HETATM   21  O   UNL     1       2.387  -2.386  -0.860  1.00  0.00    -0.394 OA
HETATM   22  C   UNL     1       0.975  -2.217  -0.823  1.00  0.00     0.201 C 
ENDBRANCH  20  21
ENDBRANCH  19  20
ENDBRANCH  18  19
ENDBRANCH   1  18
TORSDOF 5
