REMARK  5 active torsions:
REMARK  status: ('A' for Active; 'I' for Inactive)
REMARK    1  A    between atoms: C_2  and  C_3 
REMARK    2  A    between atoms: C_2  and  N_11 
REMARK    3  A    between atoms: C_3  and  N_4 
REMARK    4  A    between atoms: N_11  and  C_12 
REMARK    5  A    between atoms: C_12  and  C_13 
REMARK       I    between atoms: N_16  and  C_19 
ROOT
HETATM    1  N   UNL     1       2.954  -0.565  -1.128  1.00  0.00     0.089 N 
HETATM    2  H   UNL     1       2.556  -0.247  -2.015  1.00  0.00     0.316 HD
ENDROOT
BRANCH   1   3
HETATM    3  C   UNL     1       2.441   0.311  -0.045  1.00  0.00     0.236 C 
HETATM    4  C   UNL     1       0.908   0.276  -0.139  1.00  0.00     0.044 C 
BRANCH   3   5
HETATM    5  C   UNL     1       2.915  -0.128   1.358  1.00  0.00     0.183 C 
BRANCH   5   6
HETATM    6  N   UNL     1       2.404   0.696   2.438  1.00  0.00    -0.301 N 
HETATM    7  C   UNL     1       1.628   0.283   3.483  1.00  0.00     0.118 A 
HETATM    8  C   UNL     1       1.439   1.385   4.287  1.00  0.00    -0.028 A 
HETATM    9  C   UNL     1       0.677   1.477   5.552  1.00  0.00     0.051 C 
HETATM   10  C   UNL     1       2.147   2.416   3.630  1.00  0.00     0.115 A 
HETATM   11  N   UNL     1       2.739   1.998   2.507  1.00  0.00    -0.310 N 
ATOM     12  HN  UNL     1       3.310   2.538   1.856  1.00  0.00     0.186 HD
ENDBRANCH   5   6
ENDBRANCH   3   5
ENDBRANCH   1   3
BRANCH   1  13
HETATM   13  C   UNL     1       4.414  -0.552  -1.238  1.00  0.00     0.274 C 
BRANCH  13  14
HETATM   14  C   UNL     1       4.897  -1.404  -2.433  1.00  0.00     0.017 C 
HETATM   15  C   UNL     1       4.431  -2.870  -2.374  1.00  0.00     0.026 C 
HETATM   16  C   UNL     1       5.133  -3.672  -1.279  1.00  0.00     0.126 C 
HETATM   17  N   UNL     1       6.589  -3.564  -1.394  1.00  0.00    -0.352 N 
HETATM   18  C   UNL     1       7.110  -2.196  -1.440  1.00  0.00     0.126 C 
HETATM   19  C   UNL     1       7.501  -4.602  -1.272  1.00  0.00     0.215 C 
HETATM   20  C   UNL     1       6.432  -1.376  -2.535  1.00  0.00     0.026 C 
HETATM   21  O   UNL     1       8.720  -4.407  -1.308  1.00  0.00    -0.274 OA
HETATM   22  C   UNL     1       7.015  -6.022  -1.127  1.00  0.00     0.117 C 
ENDBRANCH  13  14
ENDBRANCH   1  13
TORSDOF 5
