REMARK  2 active torsions:
REMARK  status: ('A' for Active; 'I' for Inactive)
REMARK    1  A    between atoms: C_7  and  N_8 
REMARK       I    between atoms: N_8  and  C_9 
REMARK       I    between atoms: C_9  and  N_11 
REMARK    2  A    between atoms: N_11  and  C_12 
ROOT
HETATM    1  N   UNL     1       2.486  -2.398   0.722  1.00  0.00    -0.338 N 
HETATM    2  C   UNL     1       3.097  -2.415   1.958  1.00  0.00     0.322 C 
HETATM    3  O   UNL     1       3.942  -1.587   2.286  1.00  0.00    -0.247 OA
HETATM    4  N   UNL     1       2.695  -3.484   2.717  1.00  0.00    -0.295 N 
HETATM    5  H   UNL     1       1.543  -2.760   0.695  1.00  0.00     0.164 HD
HETATM    6  H   UNL     1       2.542  -4.336   2.199  1.00  0.00     0.172 HD
ENDROOT
BRANCH   1   7
HETATM    7  C   UNL     1       2.870  -1.388  -0.256  1.00  0.00     0.089 C 
HETATM    8  C   UNL     1       2.340   0.026   0.084  1.00  0.00     0.004 C 
HETATM    9  C   UNL     1       0.813   0.097   0.191  1.00  0.00     0.012 C 
HETATM   10  C   UNL     1       2.871   1.030  -0.954  1.00  0.00     0.006 C 
HETATM   11  C   UNL     1       2.549   0.624  -2.391  1.00  0.00     0.001 C 
HETATM   12  C   UNL     1       3.001  -0.801  -2.704  1.00  0.00     0.002 C 
HETATM   13  C   UNL     1       2.494  -1.815  -1.679  1.00  0.00     0.026 C 
ENDBRANCH   1   7
BRANCH   4  14
HETATM   14  C   UNL     1       3.270  -3.732   3.972  1.00  0.00     0.108 A 
HETATM   15  C   UNL     1       3.478  -2.711   4.894  1.00  0.00     0.049 A 
HETATM   16  C   UNL     1       4.151  -3.002   6.076  1.00  0.00     0.005 A 
HETATM   17  C   UNL     1       4.602  -4.297   6.294  1.00  0.00     0.017 A 
HETATM   18  C   UNL     1       4.312  -5.258   5.339  1.00  0.00     0.089 A 
HETATM   19  N   UNL     1       3.625  -5.013   4.200  1.00  0.00    -0.352 N 
ATOM     20  HN  UNL     1       3.387  -5.759   3.547  1.00  0.00     0.166 HD
ENDBRANCH   4  14
TORSDOF 2
