REMARK  6 active torsions:
REMARK  status: ('A' for Active; 'I' for Inactive)
REMARK    1  A    between atoms: C_2  and  C_3 
REMARK    2  A    between atoms: C_7  and  C_8 
REMARK    3  A    between atoms: C_8  and  C_9 
REMARK    4  A    between atoms: C_9  and  N_10 
REMARK       I    between atoms: N_10  and  C_11 
REMARK    5  A    between atoms: C_11  and  C_13 
REMARK    6  A    between atoms: C_13  and  C_14 
ROOT
HETATM    1  C   UNL     1       4.242  -2.354   4.538  1.00  0.00     0.129 C 
ENDROOT
BRANCH   1   2
HETATM    2  C   UNL     1       4.225  -0.838   4.718  1.00  0.00     0.084 C 
BRANCH   2   3
HETATM    3  C   UNL     1       3.795  -0.141   3.468  1.00  0.00     0.052 A 
HETATM    4  N   UNL     1       4.615   0.241   2.511  1.00  0.00    -0.363 N 
HETATM    5  C   UNL     1       3.908   0.921   1.538  1.00  0.00     0.103 A 
ATOM      6  HN  UNL     1       5.619   0.062   2.491  1.00  0.00     0.165 HD
HETATM    7  C   UNL     1       2.548   1.031   1.749  1.00  0.00    -0.001 A 
HETATM    8  S   UNL     1       2.137   0.245   3.215  1.00  0.00    -0.080 SA
BRANCH   7   9
HETATM    9  C   UNL     1       1.514   1.717   0.919  1.00  0.00     0.043 C 
HETATM   10  C   UNL     1       0.936   0.799  -0.145  1.00  0.00     0.010 C 
ENDBRANCH   7   9
ENDBRANCH   2   3
ENDBRANCH   1   2
BRANCH   1  11
HETATM   11  N   UNL     1       4.613  -3.066   5.754  1.00  0.00    -0.361 N 
HETATM   12  C   UNL     1       3.763  -3.100   6.839  1.00  0.00     0.218 C 
HETATM   13  O   UNL     1       2.699  -2.490   6.875  1.00  0.00    -0.274 OA
HETATM   14  H   UNL     1       5.365  -3.743   5.701  1.00  0.00     0.162 HD
BRANCH  12  15
HETATM   15  C   UNL     1       4.262  -3.921   8.008  1.00  0.00     0.111 C 
BRANCH  15  16
HETATM   16  C   UNL     1       5.241  -3.138   8.887  1.00  0.00     0.017 C 
HETATM   17  C   UNL     1       5.744  -3.983  10.072  1.00  0.00     0.012 C 
HETATM   18  C   UNL     1       4.862  -3.611  11.265  1.00  0.00     0.027 C 
HETATM   19  C   UNL     1       4.379  -2.250  10.894  1.00  0.00    -0.030 C 
HETATM   20  C   UNL     1       4.589  -1.988   9.599  1.00  0.00    -0.026 C 
ENDBRANCH  15  16
ENDBRANCH  12  15
ENDBRANCH   1  11
TORSDOF 6
