REMARK  4 active torsions:
REMARK  status: ('A' for Active; 'I' for Inactive)
REMARK       I    between atoms: C_2  and  N_3 
REMARK    1  A    between atoms: C_2  and  C_13 
REMARK    2  A    between atoms: N_3  and  C_4 
REMARK    3  A    between atoms: C_4  and  C_5 
REMARK    4  A    between atoms: C_5  and  C_6 
ROOT
HETATM    1  O   UNL     1       1.001  -0.016  -0.075  1.00  0.00    -0.271 OA
HETATM    2  C   UNL     1       2.229  -0.004  -0.082  1.00  0.00     0.246 C 
HETATM    3  N   UNL     1       2.982  -0.345  -1.189  1.00  0.00    -0.359 N 
HETATM    4  H   UNL     1       3.963  -0.078  -1.152  1.00  0.00     0.162 HD
ENDROOT
BRANCH   3   5
HETATM    5  C   UNL     1       2.333  -0.627  -2.459  1.00  0.00     0.128 C 
BRANCH   5   6
HETATM    6  C   UNL     1       3.315  -1.000  -3.564  1.00  0.00     0.076 C 
BRANCH   6   7
HETATM    7  C   UNL     1       2.586  -1.300  -4.848  1.00  0.00     0.010 A 
HETATM    8  C   UNL     1       2.327  -0.291  -5.773  1.00  0.00     0.025 A 
HETATM    9  C   UNL     1       1.616  -0.603  -6.930  1.00  0.00     0.003 A 
HETATM   10  C   UNL     1       1.180  -1.906  -7.131  1.00  0.00     0.017 A 
HETATM   11  C   UNL     1       1.476  -2.849  -6.161  1.00  0.00     0.088 A 
HETATM   12  N   UNL     1       2.165  -2.576  -5.031  1.00  0.00    -0.369 N 
ATOM     13  HN  UNL     1       2.361  -3.302  -4.342  1.00  0.00     0.165 HD
ENDBRANCH   6   7
ENDBRANCH   5   6
ENDBRANCH   3   5
BRANCH   2  14
HETATM   14  C   UNL     1       3.072   0.303   1.166  1.00  0.00     0.213 C 
HETATM   15  C   UNL     1       2.377   1.267   2.118  1.00  0.00     0.043 C 
HETATM   16  C   UNL     1       3.470   2.189   2.611  1.00  0.00     0.029 C 
HETATM   17  C   UNL     1       4.742   1.627   2.019  1.00  0.00     0.168 C 
HETATM   18  O   UNL     1       4.348   0.882   0.862  1.00  0.00    -0.376 OA
ENDBRANCH   2  14
TORSDOF 4
