REMARK  6 active torsions:
REMARK  status: ('A' for Active; 'I' for Inactive)
REMARK    1  A    between atoms: C_2  and  C_3 
REMARK    2  A    between atoms: C_3  and  N_4 
REMARK    3  A    between atoms: C_3  and  C_14 
REMARK    4  A    between atoms: N_4  and  C_5 
REMARK    5  A    between atoms: C_5  and  C_6 
REMARK    6  A    between atoms: C_6  and  N_7 
REMARK       I    between atoms: C_14  and  N_16 
ROOT
HETATM    1  N   UNL     1       2.472   0.821   2.261  1.00  0.00     0.098 N 
HETATM    2  H   UNL     1       2.909   1.537   2.845  1.00  0.00     0.317 HD
ENDROOT
BRANCH   1   3
HETATM    3  C   UNL     1       2.924   1.041   0.856  1.00  0.00     0.310 C 
BRANCH   3   4
HETATM    4  C   UNL     1       2.627   2.431   0.262  1.00  0.00     0.041 C 
HETATM    5  C   UNL     1       3.201   3.588   1.066  1.00  0.00     0.007 C 
ENDBRANCH   3   4
BRANCH   3   6
HETATM    6  C   UNL     1       2.377  -0.074  -0.065  1.00  0.00     0.248 C 
HETATM    7  O   UNL     1       1.687   0.114  -1.060  1.00  0.00    -0.271 OA
HETATM    8  N   UNL     1       2.730  -1.341   0.307  1.00  0.00    -0.368 N 
HETATM    9  H   UNL     1       3.045  -1.500   1.258  1.00  0.00     0.159 HD
HETATM   10  H   UNL     1       2.293  -2.103  -0.194  1.00  0.00     0.159 HD
ENDBRANCH   3   6
ENDBRANCH   1   3
BRANCH   1  11
HETATM   11  C   UNL     1       1.008   0.937   2.405  1.00  0.00     0.292 C 
BRANCH  11  12
HETATM   12  C   UNL     1       0.539   0.675   3.839  1.00  0.00     0.178 C 
BRANCH  12  13
HETATM   13  N   UNL     1      -0.906   0.799   3.919  1.00  0.00    -0.302 N 
HETATM   14  C   UNL     1      -1.824  -0.199   3.749  1.00  0.00     0.118 A 
HETATM   15  C   UNL     1      -3.062   0.409   3.764  1.00  0.00    -0.028 A 
HETATM   16  C   UNL     1      -4.392  -0.211   3.587  1.00  0.00     0.051 C 
HETATM   17  C   UNL     1      -2.771   1.776   3.972  1.00  0.00     0.115 A 
HETATM   18  N   UNL     1      -1.461   2.014   4.073  1.00  0.00    -0.310 N 
ATOM     19  HN  UNL     1      -0.992   2.906   4.230  1.00  0.00     0.186 HD
ENDBRANCH  12  13
ENDBRANCH  11  12
ENDBRANCH   1  11
TORSDOF 6
