REMARK  3 active torsions:
REMARK  status: ('A' for Active; 'I' for Inactive)
REMARK    1  A    between atoms: N_1  and  C_2 
REMARK    2  A    between atoms: C_2  and  C_3 
REMARK    3  A    between atoms: C_8  and  N_10 
ROOT
HETATM    1  C   UNL     1       2.924   1.407  -0.712  1.00  0.00    -0.026 A 
HETATM    2  C   UNL     1       2.650   2.628  -0.114  1.00  0.00     0.026 A 
HETATM    3  C   UNL     1       2.996   3.774  -0.801  1.00  0.00     0.090 A 
HETATM    4  N   UNL     1       3.576   3.778  -2.023  1.00  0.00    -0.352 N 
ATOM      5  HN  UNL     1       3.791   4.660  -2.487  1.00  0.00     0.166 HD
HETATM    6  C   UNL     1       3.868   2.602  -2.624  1.00  0.00     0.103 A 
HETATM    7  C   UNL     1       3.549   1.408  -1.973  1.00  0.00     0.057 A 
ENDROOT
BRANCH   6   8
HETATM    8  N   UNL     1       4.529   2.633  -3.837  1.00  0.00    -0.363 N 
HETATM    9  C   UNL     1       4.799   3.935  -4.473  1.00  0.00     0.150 C 
HETATM   10  C   UNL     1       3.890   4.137  -5.697  1.00  0.00     0.187 C 
HETATM   11  O   UNL     1       3.997   3.044  -6.627  1.00  0.00    -0.388 OA
HETATM   12  C   UNL     1       3.637   1.810  -5.985  1.00  0.00     0.187 C 
HETATM   13  C   UNL     1       4.552   1.512  -4.787  1.00  0.00     0.150 C 
ENDBRANCH   6   8
BRANCH   1  14
HETATM   14  C   UNL     1       2.557   0.109  -0.041  1.00  0.00     0.305 C 
BRANCH  14  15
HETATM   15  N   UNL     1       3.728  -0.722   0.209  1.00  0.00     0.082 N 
HETATM   16  H   UNL     1       3.450  -1.536   0.751  1.00  0.00     0.313 HD
HETATM   17  H   UNL     1       4.386  -0.202   0.788  1.00  0.00     0.313 HD
ENDBRANCH  14  15
ENDBRANCH   1  14
TORSDOF 3
