REMARK  5 active torsions:
REMARK  status: ('A' for Active; 'I' for Inactive)
REMARK    1  A    between atoms: C_2  and  C_4 
REMARK    2  A    between atoms: C_7  and  C_8 
REMARK    3  A    between atoms: C_8  and  C_9 
REMARK    4  A    between atoms: C_9  and  N_10 
REMARK       I    between atoms: N_10  and  C_11 
REMARK       I    between atoms: C_11  and  N_13 
REMARK    5  A    between atoms: N_13  and  C_14 
ROOT
HETATM    1  C   UNL     1       4.181  -1.682   4.435  1.00  0.00     0.077 C 
ENDROOT
BRANCH   1   2
HETATM    2  C   UNL     1       3.654  -1.793   3.040  1.00  0.00     0.018 A 
HETATM    3  N   UNL     1       2.373  -2.287   2.836  1.00  0.00    -0.356 N 
HETATM    4  C   UNL     1       2.098  -2.320   1.547  1.00  0.00     0.054 A 
ATOM      5  HN  UNL     1       1.736  -2.582   3.576  1.00  0.00     0.166 HD
HETATM    6  S   UNL     1       3.343  -1.728   0.516  1.00  0.00    -0.086 SA
HETATM    7  C   UNL     1       4.327  -1.443   1.885  1.00  0.00     0.076 A 
BRANCH   4   8
HETATM    8  C   UNL     1       0.822  -2.859   0.952  1.00  0.00     0.035 C 
HETATM    9  C   UNL     1       0.665  -4.340   1.296  1.00  0.00     0.016 C 
HETATM   10  C   UNL     1      -0.390  -2.061   1.430  1.00  0.00     0.016 C 
ENDBRANCH   4   8
ENDBRANCH   1   2
BRANCH   1  11
HETATM   11  C   UNL     1       4.274  -3.044   5.129  1.00  0.00     0.130 C 
BRANCH  11  12
HETATM   12  N   UNL     1       4.833  -2.972   6.473  1.00  0.00    -0.343 N 
HETATM   13  C   UNL     1       6.165  -2.693   6.659  1.00  0.00     0.316 C 
HETATM   14  O   UNL     1       6.922  -2.379   5.746  1.00  0.00    -0.247 OA
HETATM   15  N   UNL     1       6.539  -2.768   7.978  1.00  0.00    -0.339 N 
HETATM   16  H   UNL     1       5.840  -2.992   8.668  1.00  0.00     0.164 HD
HETATM   17  H   UNL     1       4.378  -3.520   7.186  1.00  0.00     0.164 HD
BRANCH  15  18
HETATM   18  C   UNL     1       7.857  -2.424   8.417  1.00  0.00     0.086 A 
HETATM   19  C   UNL     1       8.719  -3.446   9.101  1.00  0.00     0.027 A 
HETATM   20  C   UNL     1       8.180  -2.281   9.876  1.00  0.00     0.027 A 
ENDBRANCH  15  18
ENDBRANCH  11  12
ENDBRANCH   1  11
TORSDOF 5
