REMARK  1 active torsions:
REMARK  status: ('A' for Active; 'I' for Inactive)
REMARK       I    between atoms: N_8  and  C_9 
REMARK       I    between atoms: C_9  and  N_11 
REMARK    1  A    between atoms: N_11  and  C_12 
ROOT
HETATM    1  C   UNL     1       6.218   5.546   2.067  1.00  0.00     0.078 C 
HETATM    2  C   UNL     1       6.603   4.295   1.376  1.00  0.00     0.066 A 
HETATM    3  N   UNL     1       7.828   4.021   0.983  1.00  0.00    -0.296 N 
ATOM      4  HN  UNL     1       8.614   4.666   1.068  1.00  0.00     0.187 HD
HETATM    5  N   UNL     1       7.921   2.766   0.446  1.00  0.00    -0.279 N 
ATOM      6  HN  UNL     1       8.787   2.364   0.086  1.00  0.00     0.189 HD
HETATM    7  C   UNL     1       6.765   2.137   0.447  1.00  0.00     0.169 A 
HETATM    8  N   UNL     1       6.522   0.852   0.056  1.00  0.00    -0.288 N 
HETATM    9  C   UNL     1       7.508  -0.059  -0.215  1.00  0.00     0.322 C 
HETATM   10  O   UNL     1       7.214  -1.177  -0.621  1.00  0.00    -0.247 OA
HETATM   11  N   UNL     1       8.786   0.333   0.062  1.00  0.00    -0.332 N 
HETATM   12  S   UNL     1       5.458   3.046   1.045  1.00  0.00    -0.038 SA
HETATM   13  H   UNL     1       5.572   0.519   0.003  1.00  0.00     0.172 HD
HETATM   14  H   UNL     1       8.925   1.337   0.162  1.00  0.00     0.165 HD
ENDROOT
BRANCH  11  15
HETATM   15  C   UNL     1       9.992  -0.473  -0.082  1.00  0.00     0.054 C 
HETATM   16  C   UNL     1       9.941  -1.707   0.831  1.00  0.00     0.041 C 
HETATM   17  C   UNL     1      11.226   0.364   0.262  1.00  0.00     0.059 C 
HETATM   18  C   UNL     1      12.313  -0.143  -0.667  1.00  0.00     0.170 C 
HETATM   19  O   UNL     1      11.706  -1.002  -1.636  1.00  0.00    -0.389 OA
HETATM   20  C   UNL     1      10.283  -0.851  -1.533  1.00  0.00     0.198 C 
ENDBRANCH  11  15
TORSDOF 1
