REMARK  5 active torsions:
REMARK  status: ('A' for Active; 'I' for Inactive)
REMARK    1  A    between atoms: C_2  and  N_3 
REMARK    2  A    between atoms: C_7  and  C_8 
REMARK    3  A    between atoms: C_8  and  N_9 
REMARK       I    between atoms: N_9  and  C_10 
REMARK    4  A    between atoms: C_10  and  C_12 
REMARK    5  A    between atoms: C_12  and  C_13 
ROOT
HETATM    1  N   UNL     1      -0.126   0.601   1.591  1.00  0.00    -0.359 N 
HETATM    2  C   UNL     1      -0.133   0.842   0.230  1.00  0.00     0.223 C 
HETATM    3  O   UNL     1       0.187  -0.005  -0.602  1.00  0.00    -0.273 OA
HETATM    4  H   UNL     1      -0.223   1.397   2.210  1.00  0.00     0.162 HD
ENDROOT
BRANCH   1   5
HETATM    5  C   UNL     1       0.374  -0.651   2.153  1.00  0.00     0.158 C 
BRANCH   5   6
HETATM    6  C   UNL     1       1.919  -0.666   2.291  1.00  0.00     0.240 C 
HETATM    7  N   UNL     1       2.552  -1.859   2.875  1.00  0.00     0.094 N 
HETATM    8  C   UNL     1       2.515  -1.764   4.331  1.00  0.00     0.273 C 
HETATM    9  C   UNL     1       2.385  -0.275   4.628  1.00  0.00     0.032 C 
HETATM   10  C   UNL     1       2.411   0.402   3.270  1.00  0.00     0.039 C 
BRANCH   7  11
HETATM   11  C   UNL     1       2.158  -3.152   2.332  1.00  0.00     0.268 C 
HETATM   12  C   UNL     1       3.136  -4.248   2.756  1.00  0.00     0.037 C 
ENDBRANCH   7  11
ENDBRANCH   5   6
ENDBRANCH   1   5
BRANCH   2  13
HETATM   13  C   UNL     1      -0.561   2.244  -0.168  1.00  0.00     0.160 C 
BRANCH  13  14
HETATM   14  C   UNL     1       0.617   3.123  -0.431  1.00  0.00     0.025 A 
HETATM   15  C   UNL     1       1.593   2.933  -1.392  1.00  0.00     0.077 A 
HETATM   16  S   UNL     1       2.723   4.216  -1.353  1.00  0.00    -0.087 SA
HETATM   17  C   UNL     1       1.831   4.949  -0.082  1.00  0.00     0.047 A 
HETATM   18  C   UNL     1       2.272   6.250   0.492  1.00  0.00     0.076 C 
HETATM   19  N   UNL     1       0.770   4.282   0.321  1.00  0.00    -0.357 N 
ATOM     20  HN  UNL     1       0.150   4.574   1.076  1.00  0.00     0.166 HD
ENDBRANCH  13  14
ENDBRANCH   2  13
TORSDOF 5
