REMARK  3 active torsions:
REMARK  status: ('A' for Active; 'I' for Inactive)
REMARK    1  A    between atoms: C_2  and  N_3 
REMARK    2  A    between atoms: C_2  and  C_13 
REMARK       I    between atoms: N_3  and  C_4 
REMARK       I    between atoms: C_4  and  N_6 
REMARK    3  A    between atoms: N_6  and  C_7 
ROOT
HETATM    1  N   UNL     1       2.850   0.182  -1.534  1.00  0.00    -0.338 N 
HETATM    2  C   UNL     1       4.022  -0.392  -2.002  1.00  0.00     0.322 C 
HETATM    3  O   UNL     1       4.752  -1.065  -1.287  1.00  0.00    -0.247 OA
HETATM    4  N   UNL     1       4.181  -0.153  -3.347  1.00  0.00    -0.289 N 
HETATM    5  H   UNL     1       2.593   1.064  -1.951  1.00  0.00     0.164 HD
HETATM    6  H   UNL     1       3.374   0.105  -3.887  1.00  0.00     0.172 HD
ENDROOT
BRANCH   1   7
HETATM    7  C   UNL     1       2.439  -0.031  -0.156  1.00  0.00     0.086 C 
HETATM    8  C   UNL     1       0.915  -0.052  -0.065  1.00  0.00     0.032 C 
BRANCH   7   9
HETATM    9  C   UNL     1       3.020   0.978   0.802  1.00  0.00     0.008 A 
HETATM   10  C   UNL     1       2.689   2.451   0.715  1.00  0.00     0.007 A 
HETATM   11  C   UNL     1       4.091   1.987   0.444  1.00  0.00     0.007 A 
ENDBRANCH   7   9
ENDBRANCH   1   7
BRANCH   4  12
HETATM   12  C   UNL     1       5.253  -0.652  -4.034  1.00  0.00     0.152 A 
HETATM   13  N   UNL     1       6.396  -1.098  -3.580  1.00  0.00    -0.346 N 
HETATM   14  C   UNL     1       7.157  -1.564  -4.632  1.00  0.00     0.097 A 
ATOM     15  HN  UNL     1       6.680  -1.101  -2.600  1.00  0.00     0.167 HD
HETATM   16  C   UNL     1       6.581  -1.446  -5.879  1.00  0.00     0.070 A 
HETATM   17  S   UNL     1       5.046  -0.689  -5.730  1.00  0.00    -0.064 SA
ENDBRANCH   4  12
TORSDOF 3
