REMARK  7 active torsions:
REMARK  status: ('A' for Active; 'I' for Inactive)
REMARK    1  A    between atoms: N_1  and  C_3 
REMARK    2  A    between atoms: N_4  and  C_16 
REMARK    3  A    between atoms: C_10  and  C_21 
REMARK    4  A    between atoms: C_16  and  C_17 
REMARK    5  A    between atoms: C_17  and  C_20 
REMARK    6  A    between atoms: C_17  and  C_24 
REMARK    7  A    between atoms: C_24  and  O_26 
ROOT
HETATM    1  C   UNL     1       4.781   0.271  -1.361  1.00  0.00     0.122 A 
HETATM    2  C   UNL     1       3.477   0.716  -1.052  1.00  0.00     0.135 A 
HETATM    3  N   UNL     1       6.893   0.545  -1.847  1.00  0.00    -0.327 N 
HETATM    4  C   UNL     1       5.723   1.235  -1.673  1.00  0.00     0.140 A 
HETATM    5  N   UNL     1       5.353  -0.990  -1.397  1.00  0.00    -0.346 N 
ATOM      6  HN  UNL     1       4.891  -1.885  -1.237  1.00  0.00     0.167 HD
HETATM    7  C   UNL     1       6.620  -0.785  -1.682  1.00  0.00     0.185 A 
HETATM    8  N   UNL     1       3.241   2.060  -1.106  1.00  0.00    -0.337 N 
ATOM      9  HN  UNL     1       2.316   2.436  -0.896  1.00  0.00     0.168 HD
HETATM   10  N   UNL     1       5.534   2.562  -1.746  1.00  0.00    -0.336 N 
ATOM     11  HN  UNL     1       6.257   3.237  -1.996  1.00  0.00     0.168 HD
HETATM   12  C   UNL     1       4.260   2.881  -1.444  1.00  0.00     0.183 A 
ENDROOT
BRANCH   2  13
HETATM   13  N   UNL     1       2.462  -0.176  -0.663  1.00  0.00    -0.359 N 
HETATM   14  C   UNL     1       2.349  -1.513  -1.151  1.00  0.00     0.136 C 
HETATM   15  C   UNL     1       0.842  -1.284  -1.365  1.00  0.00    -0.003 C 
HETATM   16  C   UNL     1      -0.012  -2.400  -0.752  1.00  0.00     0.013 C 
HETATM   17  C   UNL     1       0.455  -1.036  -2.839  1.00  0.00     0.013 C 
HETATM   18  C   UNL     1       1.045   0.068  -0.576  1.00  0.00     0.099 C 
HETATM   19  C   UNL     1       0.110  -3.682  -1.574  1.00  0.00     0.001 C 
HETATM   20  C   UNL     1      -0.316  -3.440  -3.018  1.00  0.00     0.000 C 
HETATM   21  C   UNL     1       0.516  -2.330  -3.653  1.00  0.00     0.001 C 
BRANCH  18  22
HETATM   22  C   UNL     1       0.580   0.178   0.892  1.00  0.00     0.001 C 
HETATM   23  C   UNL     1       1.266   1.338   1.620  1.00  0.00     0.011 C 
HETATM   24  C   UNL     1      -0.934   0.403   0.955  1.00  0.00     0.011 C 
ENDBRANCH  18  22
ENDBRANCH   2  13
BRANCH   3  25
HETATM   25  C   UNL     1       8.204   1.141  -1.941  1.00  0.00     0.138 C 
BRANCH  25  26
HETATM   26  C   UNL     1       9.123   0.726  -3.114  1.00  0.00     0.034 C 
BRANCH  26  27
HETATM   27  C   UNL     1       8.682   1.227  -4.522  1.00  0.00     0.019 C 
HETATM   28  C   UNL     1       7.353   0.685  -5.056  1.00  0.00     0.172 C 
HETATM   29  O   UNL     1       7.663  -0.201  -6.137  1.00  0.00    -0.391 OA
HETATM   30  C   UNL     1       8.839   0.310  -6.756  1.00  0.00     0.168 C 
HETATM   31  C   UNL     1       9.683   0.803  -5.606  1.00  0.00     0.033 C 
ENDBRANCH  26  27
BRANCH  26  32
HETATM   32  C   UNL     1      10.533   1.265  -2.765  1.00  0.00     0.170 C 
BRANCH  32  33
HETATM   33  O   UNL     1      10.510   2.671  -2.556  1.00  0.00    -0.400 OA
HETATM   34  H   UNL     1      10.343   3.111  -3.408  1.00  0.00     0.209 HD
ENDBRANCH  32  33
ENDBRANCH  26  32
ENDBRANCH  25  26
ENDBRANCH   3  25
TORSDOF 7
