REMARK  4 active torsions:
REMARK  status: ('A' for Active; 'I' for Inactive)
REMARK    1  A    between atoms: C_4  and  C_10 
REMARK       I    between atoms: C_10  and  N_12 
REMARK    2  A    between atoms: N_12  and  C_13 
REMARK    3  A    between atoms: C_13  and  C_14 
REMARK    4  A    between atoms: C_14  and  C_15 
ROOT
HETATM    1  C   UNL     1       3.312   1.678  -3.338  1.00  0.00     0.221 C 
HETATM    2  O   UNL     1       4.115   1.323  -4.199  1.00  0.00    -0.273 OA
HETATM    3  N   UNL     1       2.926   2.991  -3.195  1.00  0.00    -0.360 N 
HETATM    4  H   UNL     1       2.066   3.203  -2.698  1.00  0.00     0.162 HD
ENDROOT
BRANCH   1   5
HETATM    5  C   UNL     1       2.655   0.708  -2.349  1.00  0.00     0.079 C 
HETATM    6  C   UNL     1       3.043   1.055  -0.903  1.00  0.00     0.018 C 
HETATM    7  C   UNL     1       2.538   0.044   0.139  1.00  0.00    -0.017 C 
HETATM    8  C   UNL     1       1.061   0.255   0.481  1.00  0.00     0.010 C 
HETATM    9  C   UNL     1       2.867  -1.401  -0.264  1.00  0.00     0.013 C 
HETATM   10  C   UNL     1       2.512  -1.799  -1.715  1.00  0.00    -0.047 C 
HETATM   11  C   UNL     1       3.064  -0.738  -2.690  1.00  0.00     0.022 C 
HETATM   12  C   UNL     1       0.998  -1.991  -1.915  1.00  0.00     0.015 C 
HETATM   13  C   UNL     1       3.182  -3.156  -2.023  1.00  0.00     0.015 C 
ENDBRANCH   1   5
BRANCH   3  14
HETATM   14  C   UNL     1       3.398   4.030  -4.096  1.00  0.00     0.130 C 
BRANCH  14  15
HETATM   15  C   UNL     1       2.540   4.172  -5.358  1.00  0.00     0.096 C 
BRANCH  15  16
HETATM   16  C   UNL     1       1.150   4.647  -5.052  1.00  0.00     0.084 A 
HETATM   17  N   UNL     1       0.647   4.845  -3.845  1.00  0.00    -0.354 N 
HETATM   18  C   UNL     1      -0.635   5.286  -4.038  1.00  0.00     0.106 A 
ATOM     19  HN  UNL     1       1.118   4.699  -2.952  1.00  0.00     0.166 HD
HETATM   20  C   UNL     1      -0.930   5.346  -5.377  1.00  0.00     0.108 A 
HETATM   21  N   UNL     1       0.209   4.937  -6.014  1.00  0.00    -0.350 N 
HETATM   22  C   UNL     1       0.370   4.836  -7.445  1.00  0.00     0.156 C 
ENDBRANCH  15  16
ENDBRANCH  14  15
ENDBRANCH   3  14
TORSDOF 4
