REMARK  4 active torsions:
REMARK  status: ('A' for Active; 'I' for Inactive)
REMARK    1  A    between atoms: N_6  and  C_7 
REMARK    2  A    between atoms: C_7  and  C_8 
REMARK    3  A    between atoms: C_8  and  O_9 
REMARK    4  A    between atoms: C_8  and  C_10 
ROOT
HETATM    1  C   UNL     1       6.638   0.220  -0.049  1.00  0.00     0.169 C 
ENDROOT
BRANCH   1   2
HETATM    2  N   UNL     1       5.184   0.113   0.034  1.00  0.00    -0.307 N 
HETATM    3  C   UNL     1       4.428   0.061  -1.104  1.00  0.00     0.186 A 
HETATM    4  N   UNL     1       3.139   0.041  -1.132  1.00  0.00    -0.355 N 
HETATM    5  C   UNL     1       2.480   0.068   0.073  1.00  0.00     0.017 A 
ATOM      6  HN  UNL     1       2.629   0.006  -2.014  1.00  0.00     0.166 HD
HETATM    7  C   UNL     1       0.979   0.113  -0.040  1.00  0.00     0.069 C 
HETATM    8  C   UNL     1       3.099   0.062   1.269  1.00  0.00     0.028 A 
HETATM    9  C   UNL     1       4.584   0.047   1.270  1.00  0.00     0.256 A 
HETATM   10  C   UNL     1       2.394   0.086   2.589  1.00  0.00     0.056 C 
HETATM   11  O   UNL     1       5.221   0.003   2.321  1.00  0.00    -0.267 OA
ENDBRANCH   1   2
BRANCH   1  12
HETATM   12  C   UNL     1       7.364  -1.144  -0.071  1.00  0.00     0.169 C 
BRANCH  12  13
HETATM   13  O   UNL     1       6.934  -1.849  -1.247  1.00  0.00    -0.389 OA
HETATM   14  H   UNL     1       7.559  -1.642  -1.963  1.00  0.00     0.210 HD
ENDBRANCH  12  13
BRANCH  12  15
HETATM   15  C   UNL     1       8.887  -1.063  -0.100  1.00  0.00    -0.028 A 
HETATM   16  C   UNL     1       9.595   0.151  -0.095  1.00  0.00     0.011 A 
HETATM   17  C   UNL     1      10.991   0.173  -0.171  1.00  0.00     0.024 A 
HETATM   18  C   UNL     1      11.702  -1.020  -0.248  1.00  0.00     0.034 A 
HETATM   19 CL   UNL     1      13.416  -0.986  -0.371  1.00  0.00    -0.084 Cl
HETATM   20  C   UNL     1      11.027  -2.236  -0.232  1.00  0.00     0.024 A 
HETATM   21  C   UNL     1       9.630  -2.257  -0.154  1.00  0.00     0.011 A 
ENDBRANCH  12  15
ENDBRANCH   1  12
TORSDOF 4
