REMARK  6 active torsions:
REMARK  status: ('A' for Active; 'I' for Inactive)
REMARK    1  A    between atoms: N_5  and  C_6 
REMARK    2  A    between atoms: C_6  and  C_7 
REMARK    3  A    between atoms: C_7  and  C_8 
REMARK    4  A    between atoms: C_8  and  N_9 
REMARK       I    between atoms: N_9  and  C_10 
REMARK    5  A    between atoms: C_10  and  C_12 
REMARK    6  A    between atoms: C_12  and  C_15 
ROOT
HETATM    1  N   UNL     1       7.133   1.165  -4.756  1.00  0.00    -0.360 N 
HETATM    2  C   UNL     1       8.370   1.739  -4.543  1.00  0.00     0.230 C 
HETATM    3  O   UNL     1       9.045   1.484  -3.547  1.00  0.00    -0.272 OA
HETATM    4  H   UNL     1       6.638   1.354  -5.620  1.00  0.00     0.162 HD
ENDROOT
BRANCH   1   5
HETATM    5  C   UNL     1       6.563   0.214  -3.826  1.00  0.00     0.124 C 
BRANCH   5   6
HETATM    6  C   UNL     1       5.041   0.258  -3.870  1.00  0.00     0.050 C 
BRANCH   6   7
HETATM    7  C   UNL     1       4.451  -0.684  -2.817  1.00  0.00     0.274 C 
BRANCH   7   8
HETATM    8  N   UNL     1       2.977  -0.712  -2.799  1.00  0.00     0.091 N 
HETATM    9  C   UNL     1       2.368   0.601  -2.490  1.00  0.00     0.302 C 
HETATM   10  C   UNL     1       2.588   1.081  -1.036  1.00  0.00     0.302 C 
HETATM   11  N   UNL     1       2.145   0.120  -0.004  1.00  0.00     0.087 N 
HETATM   12  C   UNL     1       0.686   0.102   0.105  1.00  0.00     0.310 C 
HETATM   13  C   UNL     1       2.675  -1.224  -0.310  1.00  0.00     0.302 C 
HETATM   14  C   UNL     1       2.501  -1.684  -1.783  1.00  0.00     0.302 C 
ENDBRANCH   7   8
ENDBRANCH   6   7
ENDBRANCH   5   6
ENDBRANCH   1   5
BRANCH   2  15
HETATM   15  C   UNL     1       8.827   2.732  -5.641  1.00  0.00     0.062 C 
HETATM   16  C   UNL     1      10.192   3.328  -5.241  1.00  0.00     0.030 C 
HETATM   17  C   UNL     1       9.025   1.901  -6.928  1.00  0.00     0.030 C 
BRANCH  15  18
HETATM   18  C   UNL     1       7.840   3.895  -5.809  1.00  0.00    -0.026 A 
HETATM   19  C   UNL     1       7.650   4.556  -7.030  1.00  0.00     0.011 A 
HETATM   20  C   UNL     1       6.769   5.632  -7.119  1.00  0.00     0.018 A 
HETATM   21  C   UNL     1       6.096   6.027  -5.978  1.00  0.00     0.087 A 
HETATM   22  N   UNL     1       6.251   5.432  -4.780  1.00  0.00    -0.375 N 
HETATM   23  C   UNL     1       7.124   4.399  -4.719  1.00  0.00     0.096 A 
ATOM     24  HN  UNL     1       5.735   5.745  -3.958  1.00  0.00     0.164 HD
ENDBRANCH  15  18
ENDBRANCH   2  15
TORSDOF 6
