REMARK  4 active torsions:
REMARK  status: ('A' for Active; 'I' for Inactive)
REMARK    1  A    between atoms: C_2  and  C_4 
REMARK    2  A    between atoms: C_8  and  C_9 
REMARK    3  A    between atoms: C_9  and  C_10 
REMARK    4  A    between atoms: C_10  and  N_11 
REMARK       I    between atoms: N_11  and  C_12 
REMARK       I    between atoms: C_12  and  N_14 
ROOT
HETATM    1  C   UNL     1       4.155  -2.051  -4.891  1.00  0.00     0.106 C 
ENDROOT
BRANCH   1   2
HETATM    2  C   UNL     1       3.770  -1.844  -3.472  1.00  0.00     0.149 A 
HETATM    3  O   UNL     1       3.220  -0.628  -3.180  1.00  0.00    -0.223 OA
HETATM    4  N   UNL     1       2.967  -0.621  -1.810  1.00  0.00    -0.247 N 
HETATM    5  C   UNL     1       3.389  -1.828  -1.409  1.00  0.00     0.107 A 
ATOM      6  HN  UNL     1       2.558   0.125  -1.247  1.00  0.00     0.196 HD
HETATM    7  N   UNL     1       3.898  -2.621  -2.415  1.00  0.00    -0.327 N 
ATOM      8  HN  UNL     1       4.277  -3.566  -2.356  1.00  0.00     0.169 HD
BRANCH   5   9
HETATM    9  C   UNL     1       3.311  -2.248   0.023  1.00  0.00     0.047 C 
HETATM   10  C   UNL     1       2.390  -3.453   0.210  1.00  0.00     0.017 C 
HETATM   11  C   UNL     1       4.694  -2.532   0.609  1.00  0.00     0.017 C 
ENDBRANCH   5   9
ENDBRANCH   1   2
BRANCH   1  12
HETATM   12  C   UNL     1       4.001  -3.505  -5.342  1.00  0.00     0.132 C 
BRANCH  12  13
HETATM   13  N   UNL     1       4.362  -3.746  -6.742  1.00  0.00    -0.343 N 
HETATM   14  C   UNL     1       3.641  -3.169  -7.758  1.00  0.00     0.318 C 
HETATM   15  O   UNL     1       2.734  -2.373  -7.522  1.00  0.00    -0.247 OA
HETATM   16  N   UNL     1       4.007  -3.515  -9.046  1.00  0.00    -0.333 N 
HETATM   17  C   UNL     1       5.103  -4.411  -9.447  1.00  0.00     0.137 C 
HETATM   18  C   UNL     1       3.221  -2.957 -10.157  1.00  0.00     0.137 C 
HETATM   19  C   UNL     1       6.129  -3.739 -10.367  1.00  0.00     0.093 C 
HETATM   20  S   UNL     1       5.379  -3.095 -11.897  1.00  0.00    -0.166 SA
HETATM   21  C   UNL     1       4.057  -2.110 -11.118  1.00  0.00     0.093 C 
HETATM   22  H   UNL     1       4.642  -4.695  -6.932  1.00  0.00     0.164 HD
ENDBRANCH  12  13
ENDBRANCH   1  12
TORSDOF 4
