REMARK  9 active torsions:
REMARK  status: ('A' for Active; 'I' for Inactive)
REMARK    1  A    between atoms: N_2  and  C_13 
REMARK    2  A    between atoms: C_6  and  N_8 
REMARK    3  A    between atoms: N_8  and  C_18 
REMARK    4  A    between atoms: N_8  and  C_23 
REMARK    5  A    between atoms: C_13  and  C_15 
REMARK    6  A    between atoms: C_15  and  C_24 
REMARK    7  A    between atoms: C_18  and  C_21 
REMARK    8  A    between atoms: C_22  and  C_23 
REMARK    9  A    between atoms: C_24  and  O_26 
ROOT
HETATM    1  N   UNL     1       1.086  -4.837   4.171  1.00  0.00    -0.197 NA
HETATM    2  C   UNL     1       0.422  -4.325   3.373  1.00  0.00     0.060 C 
HETATM    3  C   UNL     1      -0.430  -3.688   2.353  1.00  0.00     0.143 C 
ENDROOT
BRANCH   3   4
HETATM    4  C   UNL     1       0.386  -3.404   1.082  1.00  0.00     0.138 C 
BRANCH   4   5
HETATM    5  N   UNL     1      -0.427  -2.863  -0.035  1.00  0.00    -0.364 N 
BRANCH   5   6
HETATM    6  C   UNL     1      -0.627  -1.467  -0.042  1.00  0.00     0.135 A 
HETATM    7  C   UNL     1       0.393  -0.488   0.235  1.00  0.00     0.122 A 
HETATM    8  C   UNL     1       0.084   0.869   0.095  1.00  0.00     0.140 A 
HETATM    9  N   UNL     1       1.720  -0.611   0.610  1.00  0.00    -0.346 N 
HETATM   10  N   UNL     1       1.274   1.551   0.272  1.00  0.00    -0.326 N 
HETATM   11  N   UNL     1      -1.117   1.385  -0.221  1.00  0.00    -0.336 N 
HETATM   12  C   UNL     1       2.197   0.613   0.665  1.00  0.00     0.185 C 
HETATM   13  C   UNL     1      -2.025   0.396  -0.405  1.00  0.00     0.183 A 
ATOM     14  HN  UNL     1      -1.317   2.381  -0.310  1.00  0.00     0.168 HD
HETATM   15  N   UNL     1      -1.852  -0.952  -0.365  1.00  0.00    -0.337 N 
ATOM     16  HN  UNL     1      -2.631  -1.576  -0.575  1.00  0.00     0.168 HD
ATOM     17  HN  UNL     1       2.225  -1.476   0.804  1.00  0.00     0.167 HD
BRANCH  10  18
HETATM   18  C   UNL     1       1.573   2.979   0.054  1.00  0.00     0.143 C 
BRANCH  18  19
HETATM   19  C   UNL     1       1.996   3.354  -1.419  1.00  0.00     0.001 C 
HETATM   20  C   UNL     1       3.351   2.686  -1.773  1.00  0.00     0.039 C 
HETATM   21  C   UNL     1       4.528   3.398  -1.097  1.00  0.00     0.168 C 
HETATM   22  O   UNL     1       4.615   4.738  -1.564  1.00  0.00    -0.391 OA
HETATM   23  C   UNL     1       3.484   5.513  -1.187  1.00  0.00     0.168 C 
HETATM   24  C   UNL     1       2.187   4.889  -1.684  1.00  0.00     0.039 C 
BRANCH  19  25
HETATM   25  C   UNL     1       0.852   2.926  -2.369  1.00  0.00     0.175 C 
BRANCH  25  26
HETATM   26  O   UNL     1      -0.358   3.588  -1.995  1.00  0.00    -0.400 OA
HETATM   27  H   UNL     1      -0.797   3.043  -1.309  1.00  0.00     0.209 HD
ENDBRANCH  25  26
ENDBRANCH  19  25
ENDBRANCH  18  19
ENDBRANCH  10  18
ENDBRANCH   5   6
BRANCH   5  28
HETATM   28  C   UNL     1      -1.466  -3.796  -0.536  1.00  0.00     0.131 C 
BRANCH  28  29
HETATM   29  C   UNL     1      -1.564  -3.983  -2.065  1.00  0.00     0.029 C 
HETATM   30  C   UNL     1      -2.514  -5.154  -2.346  1.00  0.00     0.173 C 
HETATM   31  O   UNL     1      -1.679  -6.320  -2.374  1.00  0.00    -0.391 OA
HETATM   32  C   UNL     1      -0.502  -5.927  -3.083  1.00  0.00     0.168 C 
HETATM   33  C   UNL     1      -0.288  -4.453  -2.765  1.00  0.00     0.034 C 
ENDBRANCH  28  29
ENDBRANCH   5  28
ENDBRANCH   4   5
ENDBRANCH   3   4
TORSDOF 9
