REMARK  4 active torsions:
REMARK  status: ('A' for Active; 'I' for Inactive)
REMARK    1  A    between atoms: C_2  and  C_3 
REMARK       I    between atoms: C_2  and  N_6 
REMARK    2  A    between atoms: N_6  and  C_7 
REMARK    3  A    between atoms: C_7  and  C_8 
REMARK    4  A    between atoms: C_8  and  C_14 
ROOT
HETATM    1  C   UNL     1       6.049   2.067   0.579  1.00  0.00     0.226 C 
HETATM    2  C   UNL     1       7.475   1.805   0.771  1.00  0.00     0.068 C 
HETATM    3  N   UNL     1       8.604   1.613   0.961  1.00  0.00    -0.197 NA
ENDROOT
BRANCH   1   4
HETATM    4  C   UNL     1       5.379   0.858  -0.023  1.00  0.00     0.230 C 
HETATM    5  O   UNL     1       5.343   0.683  -1.239  1.00  0.00    -0.273 OA
HETATM    6  N   UNL     1       4.822  -0.024   0.884  1.00  0.00    -0.359 N 
HETATM    7  H   UNL     1       4.877   0.160   1.877  1.00  0.00     0.162 HD
BRANCH   6   8
HETATM    8  C   UNL     1       4.171  -1.263   0.467  1.00  0.00     0.137 C 
BRANCH   8   9
HETATM    9  C   UNL     1       4.916  -2.558   0.948  1.00  0.00     0.003 C 
HETATM   10  C   UNL     1       6.359  -2.591   0.357  1.00  0.00     0.016 C 
HETATM   11  C   UNL     1       6.399  -2.709  -1.169  1.00  0.00     0.001 C 
HETATM   12  C   UNL     1       5.627  -3.925  -1.666  1.00  0.00     0.000 C 
HETATM   13  C   UNL     1       4.212  -3.976  -1.107  1.00  0.00     0.001 C 
HETATM   14  C   UNL     1       4.185  -3.830   0.416  1.00  0.00     0.016 C 
BRANCH   9  15
HETATM   15  C   UNL     1       4.880  -2.587   2.497  1.00  0.00    -0.045 A 
HETATM   16  C   UNL     1       3.648  -2.607   3.177  1.00  0.00     0.025 A 
HETATM   17  C   UNL     1       3.622  -2.556   4.563  1.00  0.00     0.088 A 
HETATM   18  N   UNL     1       4.727  -2.499   5.328  1.00  0.00    -0.375 N 
HETATM   19  C   UNL     1       5.907  -2.515   4.676  1.00  0.00     0.088 A 
ATOM     20  HN  UNL     1       4.675  -2.447   6.345  1.00  0.00     0.164 HD
HETATM   21  C   UNL     1       6.033  -2.557   3.292  1.00  0.00     0.025 A 
ENDBRANCH   9  15
ENDBRANCH   8   9
ENDBRANCH   6   8
ENDBRANCH   1   4
TORSDOF 4
