REMARK  5 active torsions:
REMARK  status: ('A' for Active; 'I' for Inactive)
REMARK    1  A    between atoms: C_2  and  C_3 
REMARK    2  A    between atoms: C_6  and  C_7 
REMARK    3  A    between atoms: C_7  and  N_8 
REMARK       I    between atoms: N_8  and  C_9 
REMARK    4  A    between atoms: C_9  and  C_11 
REMARK    5  A    between atoms: C_11  and  C_12 
ROOT
HETATM    1  N   UNL     1       6.327  -4.088   1.101  1.00  0.00    -0.360 N 
HETATM    2  C   UNL     1       7.208  -3.258   1.769  1.00  0.00     0.222 C 
HETATM    3  O   UNL     1       6.855  -2.330   2.490  1.00  0.00    -0.273 OA
HETATM    4  H   UNL     1       6.687  -4.892   0.606  1.00  0.00     0.162 HD
ENDROOT
BRANCH   2   5
HETATM    5  C   UNL     1       8.668  -3.583   1.539  1.00  0.00     0.145 C 
BRANCH   5   6
HETATM    6  C   UNL     1       9.218  -4.367   2.677  1.00  0.00    -0.002 A 
HETATM    7  C   UNL     1       9.715  -3.866   3.912  1.00  0.00     0.030 A 
HETATM    8  C   UNL     1       9.802  -2.460   4.383  1.00  0.00     0.070 C 
HETATM    9  N   UNL     1      10.150  -4.853   4.701  1.00  0.00    -0.303 N 
HETATM   10  N   UNL     1       9.925  -5.972   3.996  1.00  0.00    -0.300 N 
ATOM     11  HN  UNL     1      10.561  -4.773   5.631  1.00  0.00     0.186 HD
HETATM   12  C   UNL     1      10.343  -7.239   4.547  1.00  0.00     0.177 C 
HETATM   13  C   UNL     1       9.333  -5.745   2.780  1.00  0.00     0.033 A 
HETATM   14  C   UNL     1       8.926  -6.817   1.837  1.00  0.00     0.070 C 
ENDBRANCH   5   6
ENDBRANCH   2   5
BRANCH   1  15
HETATM   15  C   UNL     1       4.893  -3.919   1.199  1.00  0.00     0.127 C 
BRANCH  15  16
HETATM   16  C   UNL     1       4.304  -3.126   0.015  1.00  0.00     0.003 C 
HETATM   17  C   UNL     1       4.883  -1.707  -0.129  1.00  0.00     0.006 C 
HETATM   18  C   UNL     1       4.411  -0.754   0.972  1.00  0.00     0.005 C 
HETATM   19  C   UNL     1       2.880  -0.691   1.092  1.00  0.00    -0.015 C 
HETATM   20  C   UNL     1       2.306  -2.111   1.235  1.00  0.00     0.005 C 
HETATM   21  C   UNL     1       2.771  -3.054   0.124  1.00  0.00     0.006 C 
BRANCH  19  22
HETATM   22  C   UNL     1       2.284   0.113  -0.081  1.00  0.00     0.000 C 
HETATM   23  C   UNL     1       0.775   0.278  -0.006  1.00  0.00     0.005 C 
ENDBRANCH  19  22
ENDBRANCH  15  16
ENDBRANCH   1  15
TORSDOF 5
