REMARK  5 active torsions:
REMARK  status: ('A' for Active; 'I' for Inactive)
REMARK    1  A    between atoms: N_4  and  C_9 
REMARK    2  A    between atoms: C_12  and  N_13 
REMARK       I    between atoms: N_13  and  C_14 
REMARK       I    between atoms: C_14  and  N_16 
REMARK    3  A    between atoms: N_16  and  C_17 
REMARK    4  A    between atoms: C_17  and  C_18 
REMARK    5  A    between atoms: C_18  and  O_19 
ROOT
HETATM    1  C   UNL     1       1.954   1.501  -3.495  1.00  0.00     0.103 A 
HETATM    2  C   UNL     1       1.186   1.017  -4.547  1.00  0.00     0.051 A 
HETATM    3  C   UNL     1       0.631   1.882  -5.486  1.00  0.00     0.035 A 
HETATM    4  C   UNL     1       0.811   3.251  -5.376  1.00  0.00     0.051 A 
HETATM    5  C   UNL     1       1.572   3.669  -4.293  1.00  0.00     0.119 A 
HETATM    6  N   UNL     1       2.131   2.836  -3.367  1.00  0.00    -0.350 N 
ATOM      7  HN  UNL     1       2.674   3.214  -2.591  1.00  0.00     0.166 HD
ENDROOT
BRANCH   4   8
HETATM    8  N   UNL     1       0.276   4.178  -6.305  1.00  0.00    -0.308 N 
HETATM    9  C   UNL     1      -0.645   3.858  -7.276  1.00  0.00     0.320 C 
HETATM   10  O   UNL     1      -1.203   2.773  -7.411  1.00  0.00    -0.247 OA
HETATM   11  N   UNL     1      -0.896   4.878  -8.165  1.00  0.00    -0.340 N 
HETATM   12  H   UNL     1      -0.832   5.836  -7.842  1.00  0.00     0.164 HD
HETATM   13  H   UNL     1       0.554   5.146  -6.224  1.00  0.00     0.170 HD
BRANCH  11  14
HETATM   14  C   UNL     1      -1.876   4.590  -9.197  1.00  0.00     0.162 C 
BRANCH  14  15
HETATM   15  C   UNL     1      -2.047   5.805 -10.095  1.00  0.00     0.074 C 
HETATM   16  C   UNL     1      -2.938   5.488 -11.332  1.00  0.00     0.040 C 
HETATM   17  C   UNL     1      -1.968   6.325 -12.180  1.00  0.00     0.006 C 
HETATM   18  C   UNL     1      -0.895   6.080 -11.101  1.00  0.00     0.040 C 
BRANCH  15  19
HETATM   19  O   UNL     1      -2.455   6.953  -9.307  1.00  0.00    -0.388 OA
HETATM   20  H   UNL     1      -3.343   6.726  -8.977  1.00  0.00     0.210 HD
ENDBRANCH  15  19
ENDBRANCH  14  15
ENDBRANCH  11  14
ENDBRANCH   4   8
BRANCH   1  21
HETATM   21  N   UNL     1       2.485   0.650  -2.553  1.00  0.00    -0.362 N 
HETATM   22  C   UNL     1       3.215   1.178  -1.396  1.00  0.00     0.156 C 
HETATM   23  C   UNL     1       2.849   0.341  -0.145  1.00  0.00     0.136 C 
HETATM   24  C   UNL     1       1.445   0.667   0.365  1.00  0.00     0.041 C 
HETATM   25  O   UNL     1       3.008  -1.081  -0.360  1.00  0.00    -0.378 OA
HETATM   26  C   UNL     1       2.304  -1.554  -1.525  1.00  0.00     0.136 C 
HETATM   27  C   UNL     1       2.737  -0.776  -2.783  1.00  0.00     0.156 C 
HETATM   28  C   UNL     1       2.591  -3.041  -1.687  1.00  0.00     0.041 C 
ENDBRANCH   1  21
TORSDOF 5
