REMARK  5 active torsions:
REMARK  status: ('A' for Active; 'I' for Inactive)
REMARK    1  A    between atoms: N_1  and  C_2 
REMARK    2  A    between atoms: C_5  and  N_6 
REMARK    3  A    between atoms: C_9  and  S_10 
REMARK    4  A    between atoms: S_10  and  C_11 
REMARK    5  A    between atoms: C_11  and  C_12 
ROOT
HETATM    1  C   UNL     1       4.161   6.002  -1.790  1.00  0.00     0.159 A 
HETATM    2  N   UNL     1       4.298   5.686  -3.067  1.00  0.00    -0.309 N 
ATOM      3  HN  UNL     1       4.064   6.335  -3.819  1.00  0.00     0.171 HD
HETATM    4  C   UNL     1       4.760   4.468  -3.299  1.00  0.00     0.159 A 
HETATM    5  N   UNL     1       5.089   3.585  -2.373  1.00  0.00    -0.313 N 
ATOM      6  HN  UNL     1       5.449   2.657  -2.594  1.00  0.00     0.170 HD
HETATM    7  C   UNL     1       4.909   4.013  -1.127  1.00  0.00     0.148 A 
HETATM    8  N   UNL     1       4.425   5.202  -0.776  1.00  0.00    -0.313 N 
ATOM      9  HN  UNL     1       4.271   5.472   0.196  1.00  0.00     0.170 HD
ENDROOT
BRANCH   7  10
HETATM   10  S   UNL     1       5.221   2.877   0.202  1.00  0.00    -0.091 SA
BRANCH  10  11
HETATM   11  C   UNL     1       7.008   2.587  -0.043  1.00  0.00     0.114 C 
BRANCH  11  12
HETATM   12  C   UNL     1       7.939   3.790   0.149  1.00  0.00     0.131 C 
HETATM   13  C   UNL     1       7.821   4.557   1.458  1.00  0.00     0.035 C 
HETATM   14  C   UNL     1       8.119   5.995   1.085  1.00  0.00     0.029 C 
HETATM   15  C   UNL     1       8.326   5.984  -0.415  1.00  0.00     0.168 C 
HETATM   16  O   UNL     1       7.774   4.757  -0.897  1.00  0.00    -0.385 OA
ENDBRANCH  11  12
ENDBRANCH  10  11
ENDBRANCH   7  10
BRANCH   4  17
HETATM   17  N   UNL     1       4.920   4.100  -4.623  1.00  0.00    -0.274 NA
HETATM   18  H   UNL     1       5.012   4.926  -5.199  1.00  0.00     0.127 HD
HETATM   19  H   UNL     1       5.644   3.400  -4.704  1.00  0.00     0.127 HD
ENDBRANCH   4  17
BRANCH   1  20
HETATM   20  N   UNL     1       3.648   7.251  -1.495  1.00  0.00    -0.274 NA
HETATM   21  H   UNL     1       3.094   7.585  -2.272  1.00  0.00     0.127 HD
HETATM   22  H   UNL     1       3.198   7.227  -0.590  1.00  0.00     0.127 HD
ENDBRANCH   1  20
TORSDOF 5
