REMARK  6 active torsions:
REMARK  status: ('A' for Active; 'I' for Inactive)
REMARK    1  A    between atoms: C_8  and  C_9 
REMARK    2  A    between atoms: C_9  and  N_10 
REMARK    3  A    between atoms: N_10  and  C_11 
REMARK    4  A    between atoms: C_11  and  C_12 
REMARK    5  A    between atoms: C_12  and  O_13 
REMARK    6  A    between atoms: C_12  and  C_14 
ROOT
HETATM    1  N   UNL     1       0.759  -2.432   0.341  1.00  0.00     0.086 N 
HETATM    2  H   UNL     1       0.485  -1.602   0.870  1.00  0.00     0.316 HD
ENDROOT
BRANCH   1   3
HETATM    3  C   UNL     1       1.532  -2.051  -0.841  1.00  0.00     0.279 C 
BRANCH   3   4
HETATM    4  C   UNL     1       2.752  -1.143  -0.512  1.00  0.00     0.045 C 
HETATM    5  C   UNL     1       3.957  -1.861   0.187  1.00  0.00    -0.009 C 
HETATM    6  C   UNL     1       3.879  -3.397   0.257  1.00  0.00     0.011 C 
HETATM    7  C   UNL     1       4.435  -1.327   1.551  1.00  0.00     0.009 C 
HETATM    8  C   UNL     1       3.820  -0.056   2.113  1.00  0.00     0.028 C 
HETATM    9  C   UNL     1       2.812   0.635   1.272  1.00  0.00    -0.024 C 
HETATM   10  C   UNL     1       2.320   0.180   0.112  1.00  0.00    -0.081 C 
HETATM   11  C   UNL     1       1.304   1.001  -0.633  1.00  0.00     0.043 C 
ENDBRANCH   3   4
ENDBRANCH   1   3
BRANCH   1  12
HETATM   12  C   UNL     1      -0.419  -3.225  -0.024  1.00  0.00     0.306 C 
BRANCH  12  13
HETATM   13  C   UNL     1      -1.258  -3.603   1.221  1.00  0.00     0.179 C 
BRANCH  13  14
HETATM   14  O   UNL     1      -1.811  -2.442   1.850  1.00  0.00    -0.389 OA
HETATM   15  H   UNL     1      -1.983  -1.786   1.157  1.00  0.00     0.210 HD
ENDBRANCH  13  14
BRANCH  13  16
HETATM   16  C   UNL     1      -2.367  -4.558   0.837  1.00  0.00    -0.025 A 
HETATM   17  C   UNL     1      -2.132  -5.938   0.858  1.00  0.00     0.027 A 
HETATM   18  C   UNL     1      -3.139  -6.792   0.441  1.00  0.00     0.088 A 
HETATM   19  N   UNL     1      -4.346  -6.374   0.008  1.00  0.00    -0.375 N 
HETATM   20  C   UNL     1      -4.559  -5.042  -0.001  1.00  0.00     0.088 A 
ATOM     21  HN  UNL     1      -5.062  -7.033  -0.298  1.00  0.00     0.164 HD
HETATM   22  C   UNL     1      -3.615  -4.107   0.395  1.00  0.00     0.027 A 
ENDBRANCH  13  16
ENDBRANCH  12  13
ENDBRANCH   1  12
TORSDOF 6
