REMARK  4 active torsions:
REMARK  status: ('A' for Active; 'I' for Inactive)
REMARK    1  A    between atoms: C_2  and  C_3 
REMARK    2  A    between atoms: C_3  and  N_5 
REMARK       I    between atoms: N_5  and  C_6 
REMARK       I    between atoms: C_6  and  N_8 
REMARK    3  A    between atoms: N_8  and  C_9 
REMARK    4  A    between atoms: C_12  and  N_16 
ROOT
HETATM    1  C   UNL     1       7.326  -3.954  -0.373  1.00  0.00     0.051 A 
HETATM    2  C   UNL     1       8.612  -3.948  -0.884  1.00  0.00     0.035 A 
HETATM    3  C   UNL     1       9.287  -5.148  -1.099  1.00  0.00     0.051 A 
HETATM    4  C   UNL     1       8.679  -6.367  -0.819  1.00  0.00     0.103 A 
HETATM    5  N   UNL     1       7.440  -6.393  -0.283  1.00  0.00    -0.350 N 
ATOM      6  HN  UNL     1       6.998  -7.277  -0.032  1.00  0.00     0.166 HD
HETATM    7  C   UNL     1       6.793  -5.208  -0.085  1.00  0.00     0.119 A 
ENDROOT
BRANCH   1   8
HETATM    8  N   UNL     1       6.570  -2.775  -0.162  1.00  0.00    -0.308 N 
HETATM    9  C   UNL     1       7.097  -1.498  -0.147  1.00  0.00     0.321 C 
HETATM   10  N   UNL     1       6.130  -0.533   0.040  1.00  0.00    -0.339 N 
HETATM   11  O   UNL     1       8.283  -1.209  -0.222  1.00  0.00    -0.247 OA
HETATM   12  H   UNL     1       5.216  -0.723  -0.348  1.00  0.00     0.164 HD
HETATM   13  H   UNL     1       5.630  -2.876   0.190  1.00  0.00     0.170 HD
BRANCH  10  14
HETATM   14  C   UNL     1       6.538   0.869   0.168  1.00  0.00     0.081 C 
HETATM   15  C   UNL     1       5.585   1.594   1.111  1.00  0.00     0.032 C 
BRANCH  14  16
HETATM   16  C   UNL     1       6.651   1.548  -1.209  1.00  0.00     0.020 C 
HETATM   17  C   UNL     1       7.243   2.951  -1.136  1.00  0.00     0.007 C 
ENDBRANCH  14  16
ENDBRANCH  10  14
ENDBRANCH   1   8
BRANCH   4  18
HETATM   18  N   UNL     1       9.308  -7.549  -1.123  1.00  0.00    -0.363 N 
HETATM   19  C   UNL     1      10.263  -7.677  -2.226  1.00  0.00     0.150 C 
HETATM   20  C   UNL     1       9.916  -8.911  -3.071  1.00  0.00     0.187 C 
HETATM   21  O   UNL     1       9.839 -10.097  -2.267  1.00  0.00    -0.388 OA
HETATM   22  C   UNL     1       8.804  -9.952  -1.276  1.00  0.00     0.187 C 
HETATM   23  C   UNL     1       9.068  -8.761  -0.341  1.00  0.00     0.150 C 
ENDBRANCH   4  18
TORSDOF 4
