REMARK  3 active torsions:
REMARK  status: ('A' for Active; 'I' for Inactive)
REMARK    1  A    between atoms: C_4  and  N_5 
REMARK       I    between atoms: N_5  and  C_6 
REMARK       I    between atoms: C_6  and  N_8 
REMARK    2  A    between atoms: N_8  and  C_9 
REMARK    3  A    between atoms: C_9  and  C_10 
ROOT
HETATM    1  N   UNL     1       5.709   1.614  -0.359  1.00  0.00    -0.293 N 
HETATM    2  C   UNL     1       5.570   2.970  -0.230  1.00  0.00     0.321 C 
HETATM    3  O   UNL     1       4.455   3.483  -0.213  1.00  0.00    -0.247 OA
HETATM    4  N   UNL     1       6.722   3.685  -0.127  1.00  0.00    -0.342 N 
HETATM    5  H   UNL     1       4.836   1.111  -0.428  1.00  0.00     0.172 HD
HETATM    6  H   UNL     1       7.573   3.130  -0.147  1.00  0.00     0.164 HD
ENDROOT
BRANCH   1   7
HETATM    7  C   UNL     1       6.885   0.890  -0.423  1.00  0.00     0.132 A 
HETATM    8  C   UNL     1       6.978  -0.514  -0.568  1.00  0.00     0.084 A 
HETATM    9  C   UNL     1       8.329  -0.770  -0.591  1.00  0.00     0.076 A 
HETATM   10  C   UNL     1       9.162  -1.976  -0.721  1.00  0.00     0.079 C 
HETATM   11  O   UNL     1       9.005   0.398  -0.464  1.00  0.00    -0.241 OA
HETATM   12  N   UNL     1       8.110   1.434  -0.359  1.00  0.00    -0.245 N 
ATOM     13  HN  UNL     1       8.333   2.424  -0.253  1.00  0.00     0.196 HD
ENDBRANCH   1   7
BRANCH   4  14
HETATM   14  C   UNL     1       6.803   5.120  -0.011  1.00  0.00     0.130 C 
BRANCH  14  15
HETATM   15  C   UNL     1       8.250   5.618   0.047  1.00  0.00     0.018 C 
HETATM   16  C   UNL     1       9.069   5.277  -1.218  1.00  0.00     0.022 C 
HETATM   17  C   UNL     1      10.562   5.241  -0.884  1.00  0.00     0.141 C 
HETATM   18  S   UNL     1      10.719   5.425   0.877  1.00  0.00     0.144 S 
HETATM   19  O   UNL     1      11.556   4.368   1.403  1.00  0.00    -0.228 OA
HETATM   20  O   UNL     1      10.964   6.823   1.171  1.00  0.00    -0.228 OA
HETATM   21  C   UNL     1       9.020   5.068   1.248  1.00  0.00     0.146 C 
ENDBRANCH  14  15
ENDBRANCH   4  14
TORSDOF 3
