REMARK  4 active torsions:
REMARK  status: ('A' for Active; 'I' for Inactive)
REMARK    1  A    between atoms: C_2  and  C_5 
REMARK    2  A    between atoms: C_5  and  N_6 
REMARK       I    between atoms: N_6  and  C_7 
REMARK    3  A    between atoms: C_7  and  C_9 
REMARK    4  A    between atoms: C_15  and  N_16 
ROOT
HETATM    1  C   UNL     1       6.498   1.529  -2.192  1.00  0.00     0.075 A 
HETATM    2  C   UNL     1       7.353   2.651  -2.156  1.00  0.00     0.022 A 
HETATM    3  C   UNL     1       8.728   2.484  -2.101  1.00  0.00     0.018 A 
HETATM    4  C   UNL     1       9.207   1.197  -2.046  1.00  0.00     0.089 A 
HETATM    5  N   UNL     1       8.413   0.107  -2.082  1.00  0.00    -0.352 N 
ATOM      6  HN  UNL     1       8.830  -0.823  -2.039  1.00  0.00     0.166 HD
HETATM    7  C   UNL     1       7.058   0.237  -2.175  1.00  0.00     0.119 A 
ENDROOT
BRANCH   1   8
HETATM    8  C   UNL     1       5.036   1.810  -2.121  1.00  0.00     0.255 C 
HETATM    9  N   UNL     1       4.564   2.836  -2.917  1.00  0.00    -0.348 N 
HETATM   10  H   UNL     1       5.206   3.418  -3.442  1.00  0.00     0.163 HD
HETATM   11  O   UNL     1       4.290   1.185  -1.377  1.00  0.00    -0.268 OA
BRANCH   9  12
HETATM   12  C   UNL     1       3.156   3.240  -2.846  1.00  0.00     0.240 C 
BRANCH  12  13
HETATM   13  C   UNL     1       2.753   4.102  -1.639  1.00  0.00     0.403 C 
HETATM   14  F   UNL     1       3.799   4.385  -0.829  1.00  0.00    -0.169 F 
HETATM   15  F   UNL     1       1.789   3.516  -0.898  1.00  0.00    -0.169 F 
HETATM   16  F   UNL     1       2.260   5.292  -2.067  1.00  0.00    -0.169 F 
ENDBRANCH  12  13
ENDBRANCH   9  12
ENDBRANCH   1   8
BRANCH   7  17
HETATM   17  N   UNL     1       6.402  -0.959  -2.352  1.00  0.00    -0.362 N 
HETATM   18  C   UNL     1       6.877  -2.131  -1.590  1.00  0.00     0.150 C 
HETATM   19  C   UNL     1       6.714  -3.411  -2.427  1.00  0.00     0.187 C 
HETATM   20  O   UNL     1       5.374  -3.567  -2.922  1.00  0.00    -0.388 OA
HETATM   21  C   UNL     1       5.013  -2.435  -3.729  1.00  0.00     0.187 C 
HETATM   22  C   UNL     1       5.066  -1.126  -2.923  1.00  0.00     0.150 C 
ENDBRANCH   7  17
TORSDOF 4
