REMARK  4 active torsions:
REMARK  status: ('A' for Active; 'I' for Inactive)
REMARK    1  A    between atoms: N_5  and  C_6 
REMARK    2  A    between atoms: C_6  and  C_7 
REMARK    3  A    between atoms: C_7  and  O_8 
REMARK    4  A    between atoms: C_7  and  C_9 
ROOT
HETATM    1  C   UNL     1       0.876  -0.095  -0.001  1.00  0.00     0.161 C 
HETATM    2  N   UNL     1       2.306  -0.005  -0.004  1.00  0.00    -0.302 N 
HETATM    3  C   UNL     1       3.058   1.187  -0.029  1.00  0.00     0.329 A 
HETATM    4  O   UNL     1       2.640   2.334  -0.090  1.00  0.00    -0.246 OA
HETATM    5  N   UNL     1       4.413   0.803   0.033  1.00  0.00    -0.295 N 
HETATM    6  C   UNL     1       4.489  -0.598   0.052  1.00  0.00     0.066 A 
HETATM    7  C   UNL     1       5.587  -1.432   0.086  1.00  0.00     0.032 A 
HETATM    8  C   UNL     1       5.342  -2.809   0.104  1.00  0.00     0.002 A 
HETATM    9  C   UNL     1       4.025  -3.313   0.095  1.00  0.00     0.002 A 
HETATM   10  C   UNL     1       2.923  -2.451   0.064  1.00  0.00     0.032 A 
HETATM   11  C   UNL     1       3.185  -1.096   0.037  1.00  0.00     0.065 A 
ENDROOT
BRANCH   5  12
HETATM   12  C   UNL     1       5.534   1.713   0.082  1.00  0.00     0.170 C 
BRANCH  12  13
HETATM   13  C   UNL     1       6.132   2.018  -1.309  1.00  0.00     0.172 C 
BRANCH  13  14
HETATM   14  O   UNL     1       5.167   2.641  -2.168  1.00  0.00    -0.389 OA
HETATM   15  H   UNL     1       4.507   3.088  -1.607  1.00  0.00     0.210 HD
ENDBRANCH  13  14
BRANCH  13  16
HETATM   16  C   UNL     1       7.380   2.878  -1.349  1.00  0.00     0.011 A 
HETATM   17  C   UNL     1       7.971   3.148  -2.599  1.00  0.00     0.013 A 
HETATM   18  C   UNL     1       9.125   3.930  -2.702  1.00  0.00     0.001 A 
HETATM   19  C   UNL     1       9.716   4.455  -1.557  1.00  0.00     0.003 A 
HETATM   20  C   UNL     1       9.149   4.200  -0.312  1.00  0.00     0.043 A 
HETATM   21  C   UNL     1       7.996   3.422  -0.217  1.00  0.00     0.125 A 
HETATM   22  F   UNL     1       7.494   3.213   1.008  1.00  0.00    -0.205 F 
ENDBRANCH  13  16
ENDBRANCH  12  13
ENDBRANCH   5  12
TORSDOF 4
