REMARK  8 active torsions:
REMARK  status: ('A' for Active; 'I' for Inactive)
REMARK    1  A    between atoms: C_8  and  O_9 
REMARK    2  A    between atoms: O_9  and  C_10 
REMARK    3  A    between atoms: C_10  and  C_11 
REMARK    4  A    between atoms: C_11  and  O_12 
REMARK    5  A    between atoms: C_11  and  C_13 
REMARK    6  A    between atoms: C_13  and  N_14 
REMARK    7  A    between atoms: C_15  and  C_16 
REMARK    8  A    between atoms: C_16  and  O_17 
ROOT
HETATM    1  C   UNL     1      -1.019  -4.023   0.653  1.00  0.00     0.164 C 
ENDROOT
BRANCH   1   2
HETATM    2  C   UNL     1       0.498  -3.803   0.797  1.00  0.00     0.160 C 
BRANCH   2   3
HETATM    3  C   UNL     1       0.968  -2.353   0.579  1.00  0.00     0.209 C 
BRANCH   3   4
HETATM    4  O   UNL     1       0.616  -1.901  -0.721  1.00  0.00    -0.347 OA
BRANCH   4   5
HETATM    5  C   UNL     1       0.813  -0.595  -1.103  1.00  0.00     0.080 A 
HETATM    6  C   UNL     1       1.452   0.441  -0.386  1.00  0.00    -0.028 A 
HETATM    7  C   UNL     1       1.994   0.361   1.016  1.00  0.00     0.051 C 
HETATM    8  C   UNL     1       1.594   1.705  -1.004  1.00  0.00     0.009 A 
HETATM    9  C   UNL     1       1.096   1.963  -2.275  1.00  0.00     0.001 A 
HETATM   10  C   UNL     1       0.423   0.965  -2.959  1.00  0.00     0.009 A 
HETATM   11  C   UNL     1       0.276  -0.311  -2.391  1.00  0.00    -0.028 A 
HETATM   12  C   UNL     1      -0.511  -1.330  -3.184  1.00  0.00     0.051 C 
ENDBRANCH   4   5
ENDBRANCH   3   4
ENDBRANCH   2   3
BRANCH   2  13
HETATM   13  O   UNL     1       0.949  -4.303   2.065  1.00  0.00    -0.392 OA
HETATM   14  H   UNL     1       0.902  -3.583   2.720  1.00  0.00     0.210 HD
ENDBRANCH   2  13
ENDBRANCH   1   2
BRANCH   1  15
HETATM   15  N   UNL     1      -1.844  -3.245   1.567  1.00  0.00    -0.330 N 
HETATM   16  C   UNL     1      -2.245  -3.589   2.840  1.00  0.00     0.108 A 
HETATM   17  N   UNL     1      -2.941  -2.610   3.396  1.00  0.00    -0.342 N 
HETATM   18  C   UNL     1      -3.017  -1.620   2.456  1.00  0.00     0.060 A 
ATOM     19  HN  UNL     1      -3.340  -2.597   4.335  1.00  0.00     0.167 HD
HETATM   20  C   UNL     1      -3.624  -0.352   2.519  1.00  0.00     0.032 A 
HETATM   21  C   UNL     1      -2.373  -2.003   1.290  1.00  0.00     0.062 A 
HETATM   22  C   UNL     1      -3.533   0.506   1.416  1.00  0.00     0.002 A 
HETATM   23  C   UNL     1      -2.889   0.096   0.254  1.00  0.00     0.002 A 
HETATM   24  C   UNL     1      -2.332  -1.179   0.166  1.00  0.00     0.032 A 
BRANCH  16  25
HETATM   25  C   UNL     1      -1.944  -4.878   3.529  1.00  0.00     0.240 C 
BRANCH  25  26
HETATM   26  O   UNL     1      -3.095  -5.215   4.303  1.00  0.00    -0.393 OA
HETATM   27  H   UNL     1      -3.495  -4.358   4.557  1.00  0.00     0.209 HD
ENDBRANCH  25  26
ENDBRANCH  16  25
ENDBRANCH   1  15
TORSDOF 8
