REMARK  3 active torsions:
REMARK  status: ('A' for Active; 'I' for Inactive)
REMARK       I    between atoms: N_2  and  C_3 
REMARK    1  A    between atoms: C_3  and  C_5 
REMARK    2  A    between atoms: C_5  and  C_6 
REMARK    3  A    between atoms: C_10  and  C_13 
ROOT
HETATM    1  C   UNL     1       5.190  -2.741   1.749  1.00  0.00     0.112 A 
HETATM    2  N   UNL     1       5.353  -1.553   2.346  1.00  0.00    -0.247 N 
ATOM      3  HN  UNL     1       5.191  -0.623   1.959  1.00  0.00     0.196 HD
HETATM    4  O   UNL     1       5.798  -1.892   3.624  1.00  0.00    -0.222 OA
HETATM    5  C   UNL     1       5.844  -3.255   3.672  1.00  0.00     0.152 A 
HETATM    6  N   UNL     1       5.464  -3.828   2.549  1.00  0.00    -0.326 N 
ATOM      7  HN  UNL     1       5.391  -4.821   2.328  1.00  0.00     0.169 HD
ENDROOT
BRANCH   5   8
HETATM    8  C   UNL     1       6.306  -3.856   4.945  1.00  0.00     0.067 C 
HETATM    9  C   UNL     1       6.981  -5.236   4.773  1.00  0.00     0.018 C 
HETATM   10  C   UNL     1       6.158  -6.141   5.707  1.00  0.00    -0.013 C 
HETATM   11  C   UNL     1       4.765  -6.359   5.090  1.00  0.00     0.005 C 
HETATM   12  C   UNL     1       5.854  -5.193   6.867  1.00  0.00     0.010 C 
HETATM   13  C   UNL     1       4.061  -5.019   5.342  1.00  0.00     0.006 C 
HETATM   14  C   UNL     1       5.176  -4.157   5.963  1.00  0.00    -0.002 C 
ENDBRANCH   5   8
BRANCH   1  15
HETATM   15  C   UNL     1       4.689  -2.883   0.365  1.00  0.00     0.181 C 
BRANCH  15  16
HETATM   16  C   UNL     1       5.697  -3.585  -0.521  1.00  0.00     0.224 C 
HETATM   17  N   UNL     1       5.937  -4.906  -0.193  1.00  0.00    -0.365 N 
HETATM   18  C   UNL     1       6.924  -5.674  -0.907  1.00  0.00     0.149 C 
HETATM   19  H   UNL     1       5.668  -5.211   0.739  1.00  0.00     0.161 HD
HETATM   20  O   UNL     1       6.210  -3.037  -1.494  1.00  0.00    -0.273 OA
ENDBRANCH  15  16
ENDBRANCH   1  15
TORSDOF 3
