REMARK  8 active torsions:
REMARK  status: ('A' for Active; 'I' for Inactive)
REMARK    1  A    between atoms: O_1  and  C_2 
REMARK    2  A    between atoms: C_2  and  C_3 
REMARK    3  A    between atoms: N_12  and  C_13 
REMARK    4  A    between atoms: C_13  and  C_14 
REMARK    5  A    between atoms: C_14  and  O_15 
REMARK    6  A    between atoms: C_14  and  C_16 
REMARK    7  A    between atoms: C_16  and  O_17 
REMARK    8  A    between atoms: O_17  and  C_18 
ROOT
HETATM    1  C   UNL     1       2.146   0.903  -2.806  1.00  0.00     0.108 A 
HETATM    2  N   UNL     1       1.996   2.155  -2.414  1.00  0.00    -0.342 N 
ATOM      3  HN  UNL     1       1.160   2.732  -2.509  1.00  0.00     0.167 HD
HETATM    4  C   UNL     1       3.190   2.521  -1.855  1.00  0.00     0.060 A 
HETATM    5  C   UNL     1       3.561   3.749  -1.286  1.00  0.00     0.032 A 
HETATM    6  C   UNL     1       4.854   3.893  -0.772  1.00  0.00     0.002 A 
HETATM    7  C   UNL     1       5.759   2.832  -0.821  1.00  0.00     0.002 A 
HETATM    8  C   UNL     1       5.401   1.595  -1.373  1.00  0.00     0.032 A 
HETATM    9  C   UNL     1       4.102   1.470  -1.888  1.00  0.00     0.062 A 
HETATM   10  N   UNL     1       3.409   0.438  -2.488  1.00  0.00    -0.330 N 
ENDROOT
BRANCH  10  11
HETATM   11  C   UNL     1       3.878  -0.934  -2.625  1.00  0.00     0.164 C 
BRANCH  11  12
HETATM   12  C   UNL     1       4.569  -1.239  -3.964  1.00  0.00     0.160 C 
BRANCH  12  13
HETATM   13  O   UNL     1       5.816  -0.541  -4.088  1.00  0.00    -0.392 OA
HETATM   14  H   UNL     1       6.360  -0.724  -3.305  1.00  0.00     0.210 HD
ENDBRANCH  12  13
BRANCH  12  15
HETATM   15  C   UNL     1       4.844  -2.746  -4.126  1.00  0.00     0.209 C 
BRANCH  15  16
HETATM   16  O   UNL     1       3.626  -3.484  -4.025  1.00  0.00    -0.349 OA
BRANCH  16  17
HETATM   17  C   UNL     1       3.733  -4.845  -4.105  1.00  0.00     0.069 A 
HETATM   18  C   UNL     1       2.725  -5.559  -3.448  1.00  0.00     0.040 A 
HETATM   19  C   UNL     1       2.712  -6.956  -3.472  1.00  0.00     0.045 A 
HETATM   20  C   UNL     1       3.702  -7.633  -4.173  1.00  0.00     0.116 A 
HETATM   21  F   UNL     1       3.692  -8.973  -4.205  1.00  0.00    -0.206 F 
HETATM   22  C   UNL     1       4.698  -6.939  -4.849  1.00  0.00     0.045 A 
HETATM   23  C   UNL     1       4.715  -5.540  -4.818  1.00  0.00     0.040 A 
ENDBRANCH  16  17
ENDBRANCH  15  16
ENDBRANCH  12  15
ENDBRANCH  11  12
ENDBRANCH  10  11
BRANCH   1  24
HETATM   24  C   UNL     1       1.080   0.093  -3.460  1.00  0.00     0.240 C 
BRANCH  24  25
HETATM   25  O   UNL     1       1.564  -0.337  -4.725  1.00  0.00    -0.393 OA
HETATM   26  H   UNL     1       0.815  -0.282  -5.341  1.00  0.00     0.209 HD
ENDBRANCH  24  25
ENDBRANCH   1  24
TORSDOF 8
