REMARK  9 active torsions:
REMARK  status: ('A' for Active; 'I' for Inactive)
REMARK    1  A    between atoms: C_2  and  C_3 
REMARK    2  A    between atoms: C_6  and  O_7 
REMARK    3  A    between atoms: O_7  and  C_8 
REMARK    4  A    between atoms: C_8  and  C_9 
REMARK    5  A    between atoms: C_9  and  O_10 
REMARK    6  A    between atoms: C_9  and  C_11 
REMARK    7  A    between atoms: C_11  and  N_12 
REMARK    8  A    between atoms: C_13  and  C_14 
REMARK    9  A    between atoms: C_14  and  O_15 
ROOT
HETATM    1  C   UNL     1       5.008  -4.982   7.171  1.00  0.00     0.164 C 
ENDROOT
BRANCH   1   2
HETATM    2  C   UNL     1       4.914  -3.511   6.731  1.00  0.00     0.160 C 
BRANCH   2   3
HETATM    3  C   UNL     1       4.296  -3.370   5.319  1.00  0.00     0.209 C 
BRANCH   3   4
HETATM    4  O   UNL     1       4.272  -1.972   5.009  1.00  0.00    -0.349 OA
BRANCH   4   5
HETATM    5  C   UNL     1       3.681  -1.587   3.840  1.00  0.00     0.068 A 
HETATM    6  C   UNL     1       3.174  -0.284   3.842  1.00  0.00     0.037 A 
HETATM    7  C   UNL     1       2.587   0.257   2.696  1.00  0.00     0.010 A 
HETATM    8  C   UNL     1       2.513  -0.493   1.519  1.00  0.00    -0.058 A 
HETATM    9  C   UNL     1       3.036  -1.794   1.513  1.00  0.00     0.010 A 
HETATM   10  C   UNL     1       3.612  -2.339   2.669  1.00  0.00     0.037 A 
BRANCH   8  11
HETATM   11  C   UNL     1       1.912   0.103   0.271  1.00  0.00     0.034 C 
HETATM   12  C   UNL     1       2.946   0.839  -0.568  1.00  0.00     0.010 C 
ENDBRANCH   8  11
ENDBRANCH   4   5
ENDBRANCH   3   4
ENDBRANCH   2   3
BRANCH   2  13
HETATM   13  O   UNL     1       4.139  -2.766   7.689  1.00  0.00    -0.392 OA
HETATM   14  H   UNL     1       3.223  -2.716   7.351  1.00  0.00     0.210 HD
ENDBRANCH   2  13
ENDBRANCH   1   2
BRANCH   1  15
HETATM   15  N   UNL     1       5.791  -5.166   8.390  1.00  0.00    -0.330 N 
HETATM   16  C   UNL     1       5.335  -5.266   9.693  1.00  0.00     0.108 A 
HETATM   17  N   UNL     1       6.347  -5.484  10.517  1.00  0.00    -0.342 N 
HETATM   18  C   UNL     1       7.470  -5.555   9.744  1.00  0.00     0.060 A 
ATOM     19  HN  UNL     1       6.298  -5.580  11.531  1.00  0.00     0.167 HD
HETATM   20  C   UNL     1       8.794  -5.808  10.130  1.00  0.00     0.032 A 
HETATM   21  C   UNL     1       7.164  -5.350   8.404  1.00  0.00     0.062 A 
HETATM   22  C   UNL     1       9.787  -5.849   9.146  1.00  0.00     0.002 A 
HETATM   23  C   UNL     1       9.466  -5.628   7.807  1.00  0.00     0.002 A 
HETATM   24  C   UNL     1       8.148  -5.369   7.405  1.00  0.00     0.032 A 
BRANCH  16  25
HETATM   25  C   UNL     1       3.921  -5.223  10.182  1.00  0.00     0.240 C 
BRANCH  25  26
HETATM   26  O   UNL     1       3.086  -4.465   9.322  1.00  0.00    -0.393 OA
HETATM   27  H   UNL     1       3.489  -3.574   9.284  1.00  0.00     0.209 HD
ENDBRANCH  25  26
ENDBRANCH  16  25
ENDBRANCH   1  15
TORSDOF 9
