REMARK  3 active torsions:
REMARK  status: ('A' for Active; 'I' for Inactive)
REMARK       I    between atoms: N_8  and  C_9 
REMARK       I    between atoms: C_9  and  N_11 
REMARK    1  A    between atoms: N_11  and  C_12 
REMARK    2  A    between atoms: C_12  and  C_13 
REMARK    3  A    between atoms: C_13  and  N_14 
ROOT
HETATM    1  C   UNL     1       9.910  -6.235   4.322  1.00  0.00     0.078 C 
HETATM    2  C   UNL     1       9.594  -4.933   3.689  1.00  0.00     0.066 A 
HETATM    3  N   UNL     1       9.665  -4.703   2.395  1.00  0.00    -0.296 N 
ATOM      4  HN  UNL     1       9.886  -5.415   1.699  1.00  0.00     0.187 HD
HETATM    5  N   UNL     1       9.406  -3.388   2.095  1.00  0.00    -0.279 N 
ATOM      6  HN  UNL     1       9.426  -3.004   1.150  1.00  0.00     0.189 HD
HETATM    7  C   UNL     1       9.130  -2.683   3.168  1.00  0.00     0.169 A 
HETATM    8  N   UNL     1       8.894  -1.341   3.257  1.00  0.00    -0.288 N 
HETATM    9  C   UNL     1       9.055  -0.455   2.232  1.00  0.00     0.322 C 
HETATM   10  O   UNL     1       8.802   0.733   2.411  1.00  0.00    -0.247 OA
HETATM   11  N   UNL     1       9.507  -0.951   1.046  1.00  0.00    -0.341 N 
HETATM   12  S   UNL     1       9.122  -3.564   4.625  1.00  0.00    -0.038 SA
HETATM   13  H   UNL     1       8.630  -0.949   4.147  1.00  0.00     0.172 HD
HETATM   14  H   UNL     1       9.822  -1.916   1.027  1.00  0.00     0.164 HD
ENDROOT
BRANCH  11  15
HETATM   15  C   UNL     1       9.815  -0.135  -0.104  1.00  0.00     0.154 C 
BRANCH  15  16
HETATM   16  C   UNL     1      11.238   0.469  -0.087  1.00  0.00     0.292 C 
BRANCH  16  17
HETATM   17  N   UNL     1      12.411  -0.453  -0.044  1.00  0.00     0.090 N 
HETATM   18  C   UNL     1      13.638   0.368  -0.133  1.00  0.00     0.272 C 
HETATM   19  C   UNL     1      14.906  -0.362   0.308  1.00  0.00     0.030 C 
HETATM   20  C   UNL     1      15.631  -1.124  -0.795  1.00  0.00     0.002 C 
HETATM   21  C   UNL     1      14.748  -1.869  -1.787  1.00  0.00     0.002 C 
HETATM   22  C   UNL     1      13.498  -2.481  -1.169  1.00  0.00     0.030 C 
HETATM   23  C   UNL     1      12.322  -1.496  -1.075  1.00  0.00     0.272 C 
ENDBRANCH  16  17
ENDBRANCH  15  16
ENDBRANCH  11  15
TORSDOF 3
