REMARK  3 active torsions:
REMARK  status: ('A' for Active; 'I' for Inactive)
REMARK    1  A    between atoms: O_2  and  C_3 
REMARK    2  A    between atoms: C_6  and  N_7 
REMARK       I    between atoms: N_7  and  C_8 
REMARK       I    between atoms: C_8  and  N_10 
REMARK    3  A    between atoms: N_10  and  C_11 
ROOT
HETATM    1  N   UNL     1       4.036   2.424  -3.219  1.00  0.00    -0.337 N 
HETATM    2  C   UNL     1       5.193   2.307  -3.954  1.00  0.00     0.322 C 
HETATM    3  O   UNL     1       6.308   2.291  -3.443  1.00  0.00    -0.247 OA
HETATM    4  N   UNL     1       4.924   2.130  -5.291  1.00  0.00    -0.293 N 
HETATM    5  H   UNL     1       3.291   2.924  -3.689  1.00  0.00     0.164 HD
HETATM    6  H   UNL     1       4.068   1.649  -5.520  1.00  0.00     0.172 HD
ENDROOT
BRANCH   1   7
HETATM    7  C   UNL     1       4.049   2.315  -1.738  1.00  0.00     0.099 C 
HETATM    8  C   UNL     1       4.330   0.872  -1.239  1.00  0.00     0.064 C 
HETATM    9  C   UNL     1       2.793   0.633  -1.113  1.00  0.00     0.067 C 
HETATM   10  C   UNL     1       2.258  -0.111  -2.344  1.00  0.00     0.047 C 
HETATM   11  C   UNL     1       2.649   2.217  -1.038  1.00  0.00     0.004 C 
HETATM   12  C   UNL     1       1.447   2.821  -1.762  1.00  0.00     0.020 C 
HETATM   13  C   UNL     1       2.728   2.801   0.389  1.00  0.00     0.020 C 
BRANCH   9  14
HETATM   14  O   UNL     1       2.416  -0.089   0.092  1.00  0.00    -0.384 OA
HETATM   15  C   UNL     1       1.034  -0.280   0.352  1.00  0.00     0.202 C 
ENDBRANCH   9  14
ENDBRANCH   1   7
BRANCH   4  16
HETATM   16  C   UNL     1       5.924   1.941  -6.222  1.00  0.00     0.131 A 
HETATM   17  C   UNL     1       7.227   2.486  -6.232  1.00  0.00     0.077 A 
HETATM   18  C   UNL     1       7.816   1.933  -7.337  1.00  0.00     0.171 A 
HETATM   19  O   UNL     1       6.923   1.138  -7.974  1.00  0.00    -0.248 OA
HETATM   20  N   UNL     1       5.714   1.174  -7.297  1.00  0.00    -0.245 N 
ATOM     21  HN  UNL     1       4.845   0.712  -7.563  1.00  0.00     0.196 HD
ENDBRANCH   4  16
TORSDOF 3
