REMARK  5 active torsions:
REMARK  status: ('A' for Active; 'I' for Inactive)
REMARK    1  A    between atoms: C_2  and  C_3 
REMARK       I    between atoms: C_2  and  N_10 
REMARK    2  A    between atoms: C_3  and  N_4 
REMARK    3  A    between atoms: N_10  and  C_11 
REMARK    4  A    between atoms: C_11  and  C_12 
REMARK    5  A    between atoms: N_15  and  C_17 
ROOT
HETATM    1  O   UNL     1       1.701  -0.494  -0.110  1.00  0.00    -0.272 OA
HETATM    2  C   UNL     1       2.290  -0.448  -1.187  1.00  0.00     0.237 C 
HETATM    3  N   UNL     1       3.600  -0.857  -1.352  1.00  0.00    -0.359 N 
HETATM    4  H   UNL     1       4.082  -0.636  -2.216  1.00  0.00     0.162 HD
ENDROOT
BRANCH   3   5
HETATM    5  C   UNL     1       4.418  -1.293  -0.230  1.00  0.00     0.129 C 
BRANCH   5   6
HETATM    6  C   UNL     1       5.084  -2.636  -0.498  1.00  0.00     0.033 C 
HETATM    7  C   UNL     1       4.121  -3.815  -0.638  1.00  0.00     0.038 C 
HETATM    8  C   UNL     1       4.855  -5.004  -0.020  1.00  0.00     0.273 C 
HETATM    9  N   UNL     1       6.177  -4.526   0.420  1.00  0.00     0.093 N 
HETATM   10  C   UNL     1       5.992  -3.082   0.645  1.00  0.00     0.279 C 
BRANCH   9  11
HETATM   11  C   UNL     1       7.257  -4.811  -0.546  1.00  0.00     0.223 A 
HETATM   12  C   UNL     1       7.710  -6.224  -0.799  1.00  0.00     0.038 A 
HETATM   13  C   UNL     1       8.575  -5.297  -0.000  1.00  0.00     0.038 A 
ENDBRANCH   9  11
ENDBRANCH   5   6
ENDBRANCH   3   5
BRANCH   2  14
HETATM   14  C   UNL     1       1.602   0.029  -2.445  1.00  0.00     0.249 C 
BRANCH  14  15
HETATM   15  N   UNL     1       1.162   1.394  -2.318  1.00  0.00    -0.264 N 
HETATM   16  C   UNL     1       0.184   1.909  -1.530  1.00  0.00     0.213 A 
HETATM   17  N   UNL     1       0.048   3.184  -1.819  1.00  0.00    -0.281 N 
HETATM   18  N   UNL     1       0.965   3.443  -2.810  1.00  0.00    -0.008 NA
ATOM     19  HN  UNL     1      -0.603   3.845  -1.395  1.00  0.00     0.184 HD
HETATM   20  N   UNL     1       1.647   2.351  -3.127  1.00  0.00    -0.005 NA
ENDBRANCH  14  15
ENDBRANCH   2  14
TORSDOF 5
