REMARK  6 active torsions:
REMARK  status: ('A' for Active; 'I' for Inactive)
REMARK    1  A    between atoms: C_2  and  O_3 
REMARK    2  A    between atoms: O_3  and  C_4 
REMARK    3  A    between atoms: C_6  and  N_7 
REMARK    4  A    between atoms: N_7  and  C_8 
REMARK    5  A    between atoms: C_8  and  C_9 
REMARK    6  A    between atoms: C_9  and  C_10 
ROOT
HETATM    1  C   UNL     1       4.343   1.006   0.669  1.00  0.00     0.134 C 
HETATM    2  C   UNL     1       5.084   0.257  -0.460  1.00  0.00     0.069 C 
HETATM    3  C   UNL     1       5.028   1.575  -1.272  1.00  0.00     0.234 C 
HETATM    4  C   UNL     1       5.034   2.334   0.120  1.00  0.00     0.017 C 
HETATM    5  C   UNL     1       4.075   3.533   0.258  1.00  0.00     0.014 C 
HETATM    6  C   UNL     1       4.714   4.822  -0.244  1.00  0.00     0.001 C 
HETATM    7  C   UNL     1       6.037   5.115   0.458  1.00  0.00     0.000 C 
HETATM    8  C   UNL     1       6.994   3.933   0.351  1.00  0.00     0.001 C 
HETATM    9  C   UNL     1       6.358   2.637   0.855  1.00  0.00     0.014 C 
ENDROOT
BRANCH   3  10
HETATM   10  N   UNL     1       6.274   1.716  -2.041  1.00  0.00     0.089 N 
HETATM   11  H   UNL     1       7.128   1.683  -1.488  1.00  0.00     0.316 HD
BRANCH  10  12
HETATM   12  C   UNL     1       6.326   0.663  -3.075  1.00  0.00     0.278 C 
BRANCH  12  13
HETATM   13  C   UNL     1       7.580   0.750  -3.948  1.00  0.00     0.117 C 
BRANCH  13  14
HETATM   14  C   UNL     1       7.656  -0.432  -4.843  1.00  0.00     0.149 A 
HETATM   15  N   UNL     1       8.183  -1.614  -4.624  1.00  0.00    -0.327 N 
HETATM   16  C   UNL     1       7.885  -2.282  -5.785  1.00  0.00     0.100 A 
ATOM     17  HN  UNL     1       8.685  -1.950  -3.802  1.00  0.00     0.169 HD
HETATM   18  C   UNL     1       8.266  -3.687  -6.019  1.00  0.00     0.091 C 
HETATM   19  N   UNL     1       7.203  -1.564  -6.687  1.00  0.00    -0.248 N 
HETATM   20  O   UNL     1       7.049  -0.326  -6.060  1.00  0.00    -0.223 OA
ATOM     21  HN  UNL     1       6.875  -1.852  -7.609  1.00  0.00     0.196 HD
ENDBRANCH  13  14
ENDBRANCH  12  13
ENDBRANCH  10  12
ENDBRANCH   3  10
BRANCH   1  22
HETATM   22  O   UNL     1       2.894   0.976   0.603  1.00  0.00    -0.385 OA
BRANCH  22  23
HETATM   23  C   UNL     1       2.266  -0.300   0.681  1.00  0.00     0.163 C 
HETATM   24  C   UNL     1       0.765  -0.100   0.663  1.00  0.00     0.033 C 
ENDBRANCH  22  23
ENDBRANCH   1  22
TORSDOF 6
