REMARK  3 active torsions:
REMARK  status: ('A' for Active; 'I' for Inactive)
REMARK    1  A    between atoms: N_6  and  C_7 
REMARK    2  A    between atoms: C_7  and  C_8 
REMARK    3  A    between atoms: C_8  and  O_9 
ROOT
HETATM    1  C   UNL     1       1.279  -0.572  -1.785  1.00  0.00     0.069 C 
HETATM    2  C   UNL     1       2.592  -0.250  -1.128  1.00  0.00     0.017 A 
HETATM    3  N   UNL     1       3.608   0.062  -2.006  1.00  0.00    -0.355 N 
ATOM      4  HN  UNL     1       3.431   0.169  -3.005  1.00  0.00     0.166 HD
HETATM    5  C   UNL     1       4.791   0.213  -1.514  1.00  0.00     0.186 A 
HETATM    6  N   UNL     1       5.111   0.043  -0.198  1.00  0.00    -0.307 N 
HETATM    7  C   UNL     1       4.128  -0.183   0.739  1.00  0.00     0.256 A 
HETATM    8  O   UNL     1       4.356  -0.330   1.937  1.00  0.00    -0.267 OA
HETATM    9  C   UNL     1       2.748  -0.301   0.206  1.00  0.00     0.028 A 
HETATM   10  C   UNL     1       1.645  -0.491   1.196  1.00  0.00     0.056 C 
ENDROOT
BRANCH   6  11
HETATM   11  C   UNL     1       6.502   0.017   0.228  1.00  0.00     0.170 C 
BRANCH  11  12
HETATM   12  C   UNL     1       7.223  -1.322  -0.080  1.00  0.00     0.074 C 
HETATM   13  C   UNL     1       8.622  -1.262   0.559  1.00  0.00     0.039 C 
HETATM   14  C   UNL     1       9.493  -2.451   0.169  1.00  0.00     0.003 C 
HETATM   15  C   UNL     1       8.815  -3.795   0.427  1.00  0.00     0.000 C 
HETATM   16  C   UNL     1       7.359  -3.847  -0.037  1.00  0.00     0.003 C 
HETATM   17  C   UNL     1       6.548  -2.619   0.415  1.00  0.00     0.039 C 
BRANCH  12  18
HETATM   18  O   UNL     1       7.368  -1.403  -1.509  1.00  0.00    -0.388 OA
HETATM   19  H   UNL     1       6.546  -1.786  -1.870  1.00  0.00     0.210 HD
ENDBRANCH  12  18
ENDBRANCH  11  12
ENDBRANCH   6  11
TORSDOF 3
