REMARK  4 active torsions:
REMARK  status: ('A' for Active; 'I' for Inactive)
REMARK    1  A    between atoms: C_5  and  C_6 
REMARK    2  A    between atoms: C_6  and  C_7 
REMARK    3  A    between atoms: C_7  and  N_8 
REMARK       I    between atoms: N_8  and  C_9 
REMARK       I    between atoms: C_9  and  N_11 
REMARK    4  A    between atoms: C_14  and  C_17 
REMARK       I    between atoms: C_17  and  N_19 
ROOT
HETATM    1  N   UNL     1       6.438  -4.165  -0.126  1.00  0.00    -0.343 N 
HETATM    2  C   UNL     1       6.274  -5.518   0.029  1.00  0.00     0.318 C 
HETATM    3  O   UNL     1       5.164  -6.007   0.223  1.00  0.00    -0.247 OA
HETATM    4  N   UNL     1       7.430  -6.275  -0.078  1.00  0.00    -0.334 N 
HETATM    5  C   UNL     1       8.781  -5.761  -0.294  1.00  0.00     0.128 C 
HETATM    6  C   UNL     1       9.516  -6.564  -1.365  1.00  0.00     0.034 C 
HETATM    7  C   UNL     1       9.523  -8.063  -1.047  1.00  0.00     0.081 C 
HETATM    8  C   UNL     1       8.087  -8.549  -0.814  1.00  0.00     0.034 C 
HETATM    9  C   UNL     1       7.345  -7.705   0.224  1.00  0.00     0.128 C 
HETATM   10  H   UNL     1       7.315  -3.783   0.185  1.00  0.00     0.164 HD
ENDROOT
BRANCH   1  11
HETATM   11  C   UNL     1       5.300  -3.259  -0.048  1.00  0.00     0.131 C 
BRANCH  11  12
HETATM   12  C   UNL     1       5.027  -2.823   1.390  1.00  0.00     0.084 C 
BRANCH  12  13
HETATM   13  C   UNL     1       3.846  -1.911   1.476  1.00  0.00     0.052 A 
HETATM   14  S   UNL     1       2.279  -2.551   1.774  1.00  0.00    -0.087 SA
HETATM   15  C   UNL     1       1.644  -0.962   1.771  1.00  0.00     0.076 A 
HETATM   16  C   UNL     1       2.651  -0.046   1.540  1.00  0.00     0.012 A 
HETATM   17  C   UNL     1       2.504   1.431   1.475  1.00  0.00     0.068 C 
HETATM   18  N   UNL     1       3.911  -0.600   1.363  1.00  0.00    -0.357 N 
ATOM     19  HN  UNL     1       4.762  -0.070   1.173  1.00  0.00     0.166 HD
ENDBRANCH  12  13
ENDBRANCH  11  12
ENDBRANCH   1  11
BRANCH   7  20
HETATM   20  C   UNL     1      10.432  -8.390   0.133  1.00  0.00     0.219 C 
HETATM   21  O   UNL     1      10.064  -8.944   1.162  1.00  0.00    -0.273 OA
HETATM   22  N   UNL     1      11.740  -8.035  -0.021  1.00  0.00    -0.370 N 
HETATM   23  H   UNL     1      12.139  -7.835  -0.927  1.00  0.00     0.159 HD
HETATM   24  H   UNL     1      12.371  -8.324   0.718  1.00  0.00     0.159 HD
ENDBRANCH   7  20
TORSDOF 4
