REMARK  7 active torsions:
REMARK  status: ('A' for Active; 'I' for Inactive)
REMARK    1  A    between atoms: N_6  and  C_7 
REMARK    2  A    between atoms: C_7  and  C_8 
REMARK    3  A    between atoms: C_8  and  O_9 
REMARK    4  A    between atoms: C_8  and  C_10 
REMARK    5  A    between atoms: C_10  and  O_11 
REMARK    6  A    between atoms: O_11  and  C_12 
REMARK    7  A    between atoms: C_12  and  C_13 
ROOT
HETATM    1  C   UNL     1       7.351  -1.228  -0.081  1.00  0.00     0.160 C 
ENDROOT
BRANCH   1   2
HETATM    2  C   UNL     1       6.681   0.161  -0.020  1.00  0.00     0.166 C 
BRANCH   2   3
HETATM    3  N   UNL     1       5.227   0.097  -0.086  1.00  0.00    -0.307 N 
HETATM    4  C   UNL     1       4.482   0.031   1.060  1.00  0.00     0.186 A 
HETATM    5  N   UNL     1       3.195  -0.000   1.106  1.00  0.00    -0.355 N 
HETATM    6  C   UNL     1       2.517   0.050  -0.086  1.00  0.00     0.017 A 
ATOM      7  HN  UNL     1       2.699  -0.059   1.995  1.00  0.00     0.166 HD
HETATM    8  C   UNL     1       1.015   0.041   0.052  1.00  0.00     0.069 C 
HETATM    9  C   UNL     1       3.118   0.102  -1.291  1.00  0.00     0.028 A 
HETATM   10  C   UNL     1       4.607   0.112  -1.319  1.00  0.00     0.256 A 
HETATM   11  C   UNL     1       2.388   0.163  -2.596  1.00  0.00     0.056 C 
HETATM   12  O   UNL     1       5.228   0.144  -2.382  1.00  0.00    -0.267 OA
ENDBRANCH   2   3
ENDBRANCH   1   2
BRANCH   1  13
HETATM   13  O   UNL     1       7.028  -1.942  -1.277  1.00  0.00    -0.392 OA
HETATM   14  H   UNL     1       6.974  -1.305  -2.017  1.00  0.00     0.210 HD
ENDBRANCH   1  13
BRANCH   1  15
HETATM   15  C   UNL     1       8.876  -1.092   0.006  1.00  0.00     0.201 C 
BRANCH  15  16
HETATM   16  O   UNL     1       9.220  -0.425   1.214  1.00  0.00    -0.384 OA
BRANCH  16  17
HETATM   17  C   UNL     1      10.628  -0.242   1.348  1.00  0.00     0.206 C 
BRANCH  17  18
HETATM   18  C   UNL     1      10.880   0.450   2.660  1.00  0.00    -0.035 A 
HETATM   19  C   UNL     1      10.473  -0.150   3.861  1.00  0.00     0.009 A 
HETATM   20  C   UNL     1      10.688   0.488   5.083  1.00  0.00     0.001 A 
HETATM   21  C   UNL     1      11.315   1.731   5.118  1.00  0.00     0.000 A 
HETATM   22  C   UNL     1      11.728   2.336   3.932  1.00  0.00     0.001 A 
HETATM   23  C   UNL     1      11.514   1.700   2.708  1.00  0.00     0.009 A 
ENDBRANCH  17  18
ENDBRANCH  16  17
ENDBRANCH  15  16
ENDBRANCH   1  15
TORSDOF 7
