REMARK  4 active torsions:
REMARK  status: ('A' for Active; 'I' for Inactive)
REMARK    1  A    between atoms: O_2  and  C_3 
REMARK    2  A    between atoms: C_6  and  N_7 
REMARK       I    between atoms: N_7  and  C_8 
REMARK       I    between atoms: C_8  and  N_10 
REMARK    3  A    between atoms: N_10  and  C_11 
REMARK    4  A    between atoms: C_11  and  C_12 
ROOT
HETATM    1  N   UNL     1       4.923  -4.598   2.160  1.00  0.00    -0.308 N 
HETATM    2  C   UNL     1       4.486  -5.893   1.996  1.00  0.00     0.320 C 
HETATM    3  O   UNL     1       3.423  -6.236   1.492  1.00  0.00    -0.247 OA
HETATM    4  N   UNL     1       5.383  -6.831   2.468  1.00  0.00    -0.342 N 
HETATM    5  H   UNL     1       5.869  -4.465   2.486  1.00  0.00     0.170 HD
HETATM    6  H   UNL     1       6.357  -6.574   2.449  1.00  0.00     0.164 HD
ENDROOT
BRANCH   1   7
HETATM    7  C   UNL     1       4.177  -3.443   1.823  1.00  0.00     0.051 A 
HETATM    8  C   UNL     1       2.816  -3.470   1.523  1.00  0.00     0.035 A 
HETATM    9  C   UNL     1       2.145  -2.292   1.198  1.00  0.00     0.058 A 
HETATM   10  C   UNL     1       2.856  -1.109   1.187  1.00  0.00     0.141 A 
HETATM   11  N   UNL     1       4.173  -1.026   1.474  1.00  0.00    -0.345 N 
HETATM   12  C   UNL     1       4.795  -2.193   1.792  1.00  0.00     0.119 A 
ATOM     13  HN  UNL     1       4.673  -0.137   1.453  1.00  0.00     0.167 HD
BRANCH  10  14
HETATM   14  O   UNL     1       2.124   0.018   0.877  1.00  0.00    -0.341 OA
HETATM   15  C   UNL     1       2.904   1.203   0.818  1.00  0.00     0.211 C 
ENDBRANCH  10  14
ENDBRANCH   1   7
BRANCH   4  16
HETATM   16  C   UNL     1       5.048  -8.224   2.216  1.00  0.00     0.130 C 
BRANCH  16  17
HETATM   17  C   UNL     1       6.041  -9.214   2.800  1.00  0.00     0.033 C 
HETATM   18  C   UNL     1       7.437  -9.126   2.194  1.00  0.00     0.038 C 
HETATM   19  C   UNL     1       7.939 -10.567   2.125  1.00  0.00     0.272 C 
HETATM   20  N   UNL     1       6.870 -11.432   2.648  1.00  0.00     0.084 N 
HETATM   21  C   UNL     1       7.115 -11.805   4.041  1.00  0.00     0.309 C 
HETATM   22  C   UNL     1       5.633 -10.654   2.503  1.00  0.00     0.278 C 
ENDBRANCH  16  17
ENDBRANCH   4  16
TORSDOF 4
