REMARK  5 active torsions:
REMARK  status: ('A' for Active; 'I' for Inactive)
REMARK    1  A    between atoms: C_2  and  N_4 
REMARK       I    between atoms: N_4  and  C_5 
REMARK    2  A    between atoms: C_5  and  C_7 
REMARK    3  A    between atoms: C_7  and  N_8 
REMARK       I    between atoms: N_8  and  C_9 
REMARK    4  A    between atoms: C_9  and  C_11 
REMARK    5  A    between atoms: C_11  and  N_12 
ROOT
HETATM    1  N   UNL     1       6.304   1.471  -2.787  1.00  0.00    -0.351 N 
HETATM    2  C   UNL     1       6.984   0.410  -3.342  1.00  0.00     0.237 C 
HETATM    3  O   UNL     1       6.403  -0.576  -3.792  1.00  0.00    -0.272 OA
HETATM    4  H   UNL     1       6.801   2.128  -2.194  1.00  0.00     0.163 HD
ENDROOT
BRANCH   1   5
HETATM    5  C   UNL     1       4.859   1.428  -2.644  1.00  0.00     0.225 C 
BRANCH   5   6
HETATM    6  C   UNL     1       4.467   0.780  -1.316  1.00  0.00     0.235 C 
HETATM    7  N   UNL     1       4.325  -0.590  -1.371  1.00  0.00    -0.356 N 
HETATM    8  H   UNL     1       4.492  -1.059  -2.257  1.00  0.00     0.162 HD
HETATM    9  O   UNL     1       4.379   1.435  -0.280  1.00  0.00    -0.272 OA
BRANCH   7  10
HETATM   10  C   UNL     1       3.908  -1.379  -0.220  1.00  0.00     0.076 C 
HETATM   11  C   UNL     1       2.384  -1.452  -0.143  1.00  0.00     0.032 C 
HETATM   12  C   UNL     1       4.510  -2.779  -0.287  1.00  0.00     0.032 C 
ENDBRANCH   7  10
ENDBRANCH   5   6
ENDBRANCH   1   5
BRANCH   2  13
HETATM   13  C   UNL     1       8.489   0.556  -3.393  1.00  0.00     0.252 C 
BRANCH  13  14
HETATM   14  N   UNL     1       9.145  -0.506  -2.668  1.00  0.00    -0.278 N 
HETATM   15  C   UNL     1       9.123  -1.841  -2.929  1.00  0.00     0.201 A 
HETATM   16  N   UNL     1       9.885  -2.469  -2.063  1.00  0.00    -0.346 N 
HETATM   17  C   UNL     1      10.367  -1.455  -1.286  1.00  0.00     0.198 A 
ATOM     18  HN  UNL     1      10.071  -3.469  -1.989  1.00  0.00     0.167 HD
HETATM   19  N   UNL     1       9.953  -0.230  -1.626  1.00  0.00    -0.293 N 
ATOM     20  HN  UNL     1      10.186   0.671  -1.209  1.00  0.00     0.188 HD
ENDBRANCH  13  14
ENDBRANCH   2  13
TORSDOF 5
