REMARK  4 active torsions:
REMARK  status: ('A' for Active; 'I' for Inactive)
REMARK    1  A    between atoms: C_2  and  C_5 
REMARK    2  A    between atoms: N_10  and  C_11 
REMARK    3  A    between atoms: C_11  and  C_12 
REMARK       I    between atoms: C_12  and  N_14 
REMARK    4  A    between atoms: N_14  and  C_15 
ROOT
HETATM    1  C   UNL     1       6.137  -4.610   2.032  1.00  0.00     0.063 A 
HETATM    2  C   UNL     1       6.372  -5.798   2.833  1.00  0.00     0.023 A 
HETATM    3  C   UNL     1       5.353  -6.493   3.357  1.00  0.00     0.075 A 
HETATM    4  C   UNL     1       3.950  -6.060   3.123  1.00  0.00     0.247 A 
HETATM    5  O   UNL     1       3.019  -6.740   3.547  1.00  0.00    -0.268 OA
HETATM    6  N   UNL     1       3.795  -4.876   2.409  1.00  0.00    -0.315 N 
HETATM    7  C   UNL     1       4.870  -4.192   1.860  1.00  0.00     0.110 A 
ENDROOT
BRANCH   6   8
HETATM    8  C   UNL     1       2.438  -4.393   2.167  1.00  0.00     0.234 C 
BRANCH   8   9
HETATM    9  C   UNL     1       1.914  -4.880   0.819  1.00  0.00     0.236 C 
HETATM   10  O   UNL     1       2.152  -4.279  -0.227  1.00  0.00    -0.272 OA
HETATM   11  N   UNL     1       1.190  -6.057   0.869  1.00  0.00    -0.355 N 
HETATM   12  H   UNL     1       1.322  -6.648   1.688  1.00  0.00     0.162 HD
BRANCH  11  13
HETATM   13  C   UNL     1       0.590  -6.626  -0.319  1.00  0.00     0.084 C 
HETATM   14  C   UNL     1      -0.649  -7.471  -0.008  1.00  0.00     0.025 C 
HETATM   15  C   UNL     1      -0.656  -8.608  -1.033  1.00  0.00     0.002 C 
HETATM   16  C   UNL     1       0.538  -8.358  -1.948  1.00  0.00     0.002 C 
HETATM   17  C   UNL     1       1.511  -7.573  -1.081  1.00  0.00     0.025 C 
ENDBRANCH  11  13
ENDBRANCH   8   9
ENDBRANCH   6   8
BRANCH   1  18
HETATM   18  C   UNL     1       7.300  -3.890   1.405  1.00  0.00     0.418 C 
HETATM   19  F   UNL     1       8.476  -4.552   1.560  1.00  0.00    -0.166 F 
HETATM   20  F   UNL     1       7.472  -2.656   1.944  1.00  0.00    -0.166 F 
HETATM   21  F   UNL     1       7.124  -3.716   0.071  1.00  0.00    -0.166 F 
ENDBRANCH   1  18
TORSDOF 4
