REMARK  6 active torsions:
REMARK  status: ('A' for Active; 'I' for Inactive)
REMARK    1  A    between atoms: C_2  and  C_4 
REMARK    2  A    between atoms: C_4  and  C_5 
REMARK    3  A    between atoms: C_4  and  C_13 
REMARK    4  A    between atoms: C_5  and  N_6 
REMARK       I    between atoms: N_6  and  C_7 
REMARK    5  A    between atoms: C_7  and  C_9 
REMARK    6  A    between atoms: C_9  and  C_10 
ROOT
HETATM    1  C   UNL     1       2.976   1.080  -0.698  1.00  0.00     0.058 C 
ENDROOT
BRANCH   1   2
HETATM    2  C   UNL     1       2.448  -0.165   0.087  1.00  0.00    -0.011 C 
HETATM    3  C   UNL     1       2.863  -0.241   1.559  1.00  0.00     0.010 C 
HETATM    4  C   UNL     1       0.926  -0.317  -0.032  1.00  0.00     0.010 C 
ENDBRANCH   1   2
BRANCH   1   5
HETATM    5  C   UNL     1       2.337   2.428  -0.256  1.00  0.00     0.133 C 
BRANCH   5   6
HETATM    6  N   UNL     1       2.599   2.781   1.128  1.00  0.00    -0.360 N 
HETATM    7  C   UNL     1       1.774   3.609   1.855  1.00  0.00     0.217 C 
HETATM    8  O   UNL     1       0.736   4.091   1.413  1.00  0.00    -0.274 OA
HETATM    9  H   UNL     1       3.504   2.550   1.516  1.00  0.00     0.162 HD
BRANCH   7  10
HETATM   10  C   UNL     1       2.283   3.894   3.258  1.00  0.00     0.107 C 
BRANCH  10  11
HETATM   11  C   UNL     1       3.063   5.175   3.331  1.00  0.00    -0.006 A 
HETATM   12  C   UNL     1       3.581   5.661   4.661  1.00  0.00     0.005 A 
HETATM   13  C   UNL     1       2.465   6.398   3.977  1.00  0.00     0.005 A 
ENDBRANCH  10  11
ENDBRANCH   7  10
ENDBRANCH   5   6
ENDBRANCH   1   5
BRANCH   1  14
HETATM   14  C   UNL     1       4.500   1.157  -0.764  1.00  0.00     0.035 A 
HETATM   15  C   UNL     1       5.378   2.150  -0.355  1.00  0.00     0.045 A 
HETATM   16  C   UNL     1       6.659   1.701  -0.705  1.00  0.00     0.109 A 
HETATM   17  N   UNL     1       6.623   0.517  -1.308  1.00  0.00    -0.310 N 
HETATM   18  N   UNL     1       5.311   0.217  -1.373  1.00  0.00    -0.301 N 
ATOM     19  HN  UNL     1       7.410  -0.038  -1.645  1.00  0.00     0.186 HD
HETATM   20  C   UNL     1       4.937  -0.992  -2.071  1.00  0.00     0.177 C 
ENDBRANCH   1  14
TORSDOF 6
