REMARK  6 active torsions:
REMARK  status: ('A' for Active; 'I' for Inactive)
REMARK    1  A    between atoms: C_2  and  O_3 
REMARK    2  A    between atoms: C_2  and  C_11 
REMARK    3  A    between atoms: O_3  and  C_4 
REMARK       I    between atoms: C_11  and  N_13 
REMARK    4  A    between atoms: N_13  and  C_14 
REMARK    5  A    between atoms: C_14  and  C_15 
REMARK    6  A    between atoms: C_15  and  C_16 
ROOT
HETATM    1  C   UNL     1       2.876  -0.635   1.520  1.00  0.00     0.246 C 
HETATM    2  O   UNL     1       2.128  -1.003   2.424  1.00  0.00    -0.271 OA
HETATM    3  N   UNL     1       4.245  -0.829   1.565  1.00  0.00    -0.359 N 
HETATM    4  H   UNL     1       4.799  -0.199   0.993  1.00  0.00     0.162 HD
ENDROOT
BRANCH   1   5
HETATM    5  C   UNL     1       2.378  -0.036   0.192  1.00  0.00     0.209 C 
HETATM    6  C   UNL     1       0.850  -0.058   0.176  1.00  0.00     0.050 C 
BRANCH   5   7
HETATM    7  O   UNL     1       2.951   1.264  -0.003  1.00  0.00    -0.372 OA
BRANCH   7   8
HETATM    8  C   UNL     1       2.517   1.974  -1.178  1.00  0.00     0.122 C 
HETATM    9  C   UNL     1       2.994   1.274  -2.459  1.00  0.00     0.032 C 
HETATM   10  C   UNL     1       2.244   1.753  -3.695  1.00  0.00     0.002 C 
HETATM   11  C   UNL     1       2.859   2.959  -4.390  1.00  0.00     0.000 C 
HETATM   12  C   UNL     1       3.443   4.048  -3.495  1.00  0.00     0.000 C 
HETATM   13  C   UNL     1       2.657   4.337  -2.219  1.00  0.00     0.002 C 
HETATM   14  C   UNL     1       3.035   3.414  -1.056  1.00  0.00     0.032 C 
ENDBRANCH   7   8
ENDBRANCH   5   7
ENDBRANCH   1   5
BRANCH   3  15
HETATM   15  C   UNL     1       4.861  -1.486   2.703  1.00  0.00     0.127 C 
BRANCH  15  16
HETATM   16  C   UNL     1       4.475  -2.971   2.795  1.00  0.00     0.059 C 
BRANCH  16  17
HETATM   17  C   UNL     1       5.078  -3.640   3.996  1.00  0.00    -0.041 A 
HETATM   18  C   UNL     1       4.434  -3.622   5.233  1.00  0.00     0.010 A 
HETATM   19  C   UNL     1       5.038  -4.224   6.334  1.00  0.00     0.025 A 
HETATM   20  C   UNL     1       6.279  -4.829   6.169  1.00  0.00     0.005 A 
HETATM   21  C   UNL     1       6.991  -5.455   7.330  1.00  0.00     0.068 C 
HETATM   22  N   UNL     1       6.921  -4.863   4.977  1.00  0.00    -0.369 N 
HETATM   23  C   UNL     1       6.310  -4.275   3.925  1.00  0.00     0.095 A 
ATOM     24  HN  UNL     1       7.830  -5.315   4.877  1.00  0.00     0.165 HD
ENDBRANCH  16  17
ENDBRANCH  15  16
ENDBRANCH   3  15
TORSDOF 6
