REMARK  5 active torsions:
REMARK  status: ('A' for Active; 'I' for Inactive)
REMARK    1  A    between atoms: C_2  and  C_4 
REMARK    2  A    between atoms: C_4  and  O_5 
REMARK    3  A    between atoms: O_5  and  C_6 
REMARK    4  A    between atoms: C_10  and  N_11 
REMARK       I    between atoms: N_11  and  C_12 
REMARK       I    between atoms: C_12  and  N_14 
REMARK    5  A    between atoms: N_14  and  C_15 
ROOT
HETATM    1  C   UNL     1       4.906   2.355   1.554  1.00  0.00     0.143 A 
HETATM    2  C   UNL     1       4.653   3.678   1.263  1.00  0.00     0.056 A 
HETATM    3  C   UNL     1       5.206   4.639   2.102  1.00  0.00     0.008 A 
HETATM    4  C   UNL     1       6.009   4.236   3.170  1.00  0.00     0.049 A 
HETATM    5  C   UNL     1       6.240   2.879   3.364  1.00  0.00     0.110 A 
HETATM    6  N   UNL     1       5.687   1.953   2.570  1.00  0.00    -0.323 N 
ATOM      7  HN  UNL     1       5.856   0.961   2.734  1.00  0.00     0.169 HD
ENDROOT
BRANCH   5   8
HETATM    8  N   UNL     1       7.080   2.483   4.410  1.00  0.00    -0.295 N 
HETATM    9  C   UNL     1       7.369   1.169   4.724  1.00  0.00     0.322 C 
HETATM   10  O   UNL     1       6.890   0.169   4.200  1.00  0.00    -0.247 OA
HETATM   11  N   UNL     1       8.297   1.079   5.753  1.00  0.00    -0.338 N 
HETATM   12  H   UNL     1       8.773   1.913   6.061  1.00  0.00     0.164 HD
HETATM   13  H   UNL     1       7.469   3.203   4.996  1.00  0.00     0.172 HD
BRANCH  11  14
HETATM   14  C   UNL     1       8.763  -0.185   6.237  1.00  0.00     0.086 A 
HETATM   15  C   UNL     1       8.542  -0.558   7.677  1.00  0.00     0.027 A 
HETATM   16  C   UNL     1       9.931  -0.288   7.179  1.00  0.00     0.027 A 
ENDBRANCH  11  14
ENDBRANCH   5   8
BRANCH   1  17
HETATM   17  O   UNL     1       4.282   1.397   0.792  1.00  0.00    -0.330 OA
BRANCH  17  18
HETATM   18  C   UNL     1       4.053   0.183   1.535  1.00  0.00     0.248 C 
BRANCH  18  19
HETATM   19  C   UNL     1       3.054   0.377   2.671  1.00  0.00     0.377 C 
HETATM   20  F   UNL     1       1.863   0.796   2.153  1.00  0.00    -0.212 F 
HETATM   21  F   UNL     1       2.797  -0.811   3.277  1.00  0.00    -0.212 F 
ENDBRANCH  18  19
ENDBRANCH  17  18
ENDBRANCH   1  17
TORSDOF 5
