REMARK  6 active torsions:
REMARK  status: ('A' for Active; 'I' for Inactive)
REMARK    1  A    between atoms: O_2  and  C_3 
REMARK    2  A    between atoms: C_6  and  O_7 
REMARK    3  A    between atoms: C_9  and  C_11 
REMARK    4  A    between atoms: C_11  and  O_12 
REMARK    5  A    between atoms: C_11  and  C_13 
REMARK    6  A    between atoms: C_13  and  N_14 
ROOT
HETATM    1  C   UNL     1       4.356  -3.047   3.220  1.00  0.00     0.172 C 
ENDROOT
BRANCH   1   2
HETATM    2  C   UNL     1       3.990  -1.627   2.798  1.00  0.00     0.008 A 
HETATM    3  C   UNL     1       2.653  -1.174   2.796  1.00  0.00     0.077 A 
HETATM    4  C   UNL     1       2.366   0.146   2.445  1.00  0.00     0.040 A 
HETATM    5  C   UNL     1       3.401   1.029   2.134  1.00  0.00     0.039 A 
HETATM    6  C   UNL     1       4.728   0.604   2.144  1.00  0.00     0.069 A 
HETATM    7  C   UNL     1       5.020  -0.721   2.469  1.00  0.00     0.049 A 
BRANCH   3   8
HETATM    8  O   UNL     1       1.720  -2.087   3.210  1.00  0.00    -0.355 OA
HETATM    9  C   UNL     1       0.354  -1.690   3.216  1.00  0.00     0.210 C 
ENDBRANCH   3   8
BRANCH   6  10
HETATM   10  O   UNL     1       5.647   1.586   1.901  1.00  0.00    -0.356 OA
HETATM   11  C   UNL     1       6.876   1.177   1.314  1.00  0.00     0.210 C 
ENDBRANCH   6  10
ENDBRANCH   1   2
BRANCH   1  12
HETATM   12  O   UNL     1       3.974  -3.232   4.587  1.00  0.00    -0.389 OA
HETATM   13  H   UNL     1       3.129  -2.763   4.716  1.00  0.00     0.210 HD
ENDBRANCH   1  12
BRANCH   1  14
HETATM   14  C   UNL     1       3.714  -4.122   2.326  1.00  0.00     0.166 C 
BRANCH  14  15
HETATM   15  N   UNL     1       4.104  -5.472   2.692  1.00  0.00    -0.338 N 
HETATM   16  C   UNL     1       3.421  -6.269   3.572  1.00  0.00     0.184 A 
HETATM   17  N   UNL     1       3.930  -7.479   3.630  1.00  0.00    -0.350 N 
HETATM   18  C   UNL     1       4.996  -7.457   2.763  1.00  0.00     0.060 A 
ATOM     19  HN  UNL     1       3.605  -8.263   4.195  1.00  0.00     0.166 HD
HETATM   20  C   UNL     1       5.890  -8.485   2.433  1.00  0.00     0.032 A 
HETATM   21  C   UNL     1       5.137  -6.205   2.165  1.00  0.00     0.062 A 
HETATM   22  C   UNL     1       6.908  -8.219   1.509  1.00  0.00     0.002 A 
HETATM   23  C   UNL     1       7.034  -6.954   0.928  1.00  0.00     0.002 A 
HETATM   24  C   UNL     1       6.149  -5.917   1.243  1.00  0.00     0.032 A 
ENDBRANCH  14  15
ENDBRANCH   1  14
TORSDOF 6
