REMARK  4 active torsions:
REMARK  status: ('A' for Active; 'I' for Inactive)
REMARK    1  A    between atoms: N_4  and  C_5 
REMARK    2  A    between atoms: C_5  and  C_6 
REMARK    3  A    between atoms: C_6  and  N_7 
REMARK       I    between atoms: N_7  and  C_8 
REMARK       I    between atoms: C_8  and  N_10 
REMARK    4  A    between atoms: N_10  and  C_11 
ROOT
HETATM    1  N   UNL     1       3.250   4.032  -4.189  1.00  0.00    -0.341 N 
HETATM    2  C   UNL     1       2.880   3.888  -5.491  1.00  0.00     0.321 C 
HETATM    3  O   UNL     1       2.213   2.985  -5.953  1.00  0.00    -0.247 OA
HETATM    4  N   UNL     1       3.351   4.972  -6.276  1.00  0.00    -0.293 N 
HETATM    5  H   UNL     1       3.764   4.837  -3.864  1.00  0.00     0.164 HD
HETATM    6  H   UNL     1       3.761   5.771  -5.826  1.00  0.00     0.172 HD
ENDROOT
BRANCH   1   7
HETATM    7  C   UNL     1       2.758   3.089  -3.200  1.00  0.00     0.154 C 
BRANCH   7   8
HETATM    8  C   UNL     1       3.317   1.659  -3.375  1.00  0.00     0.292 C 
BRANCH   8   9
HETATM    9  N   UNL     1       2.742   0.682  -2.438  1.00  0.00     0.095 N 
HETATM   10  C   UNL     1       3.062   0.985  -1.029  1.00  0.00     0.303 C 
HETATM   11  C   UNL     1       2.492  -0.075  -0.064  1.00  0.00     0.146 C 
HETATM   12  C   UNL     1       0.966  -0.035   0.024  1.00  0.00     0.041 C 
HETATM   13  O   UNL     1       2.970  -1.385  -0.403  1.00  0.00    -0.378 OA
HETATM   14  C   UNL     1       2.693  -1.739  -1.768  1.00  0.00     0.146 C 
HETATM   15  C   UNL     1       3.248  -0.679  -2.745  1.00  0.00     0.303 C 
HETATM   16  C   UNL     1       3.330  -3.100  -2.021  1.00  0.00     0.041 C 
ENDBRANCH   8   9
ENDBRANCH   7   8
ENDBRANCH   1   7
BRANCH   4  17
HETATM   17  C   UNL     1       3.177   4.997  -7.656  1.00  0.00     0.127 A 
HETATM   18  C   UNL     1       2.894   3.940  -8.492  1.00  0.00     0.076 A 
HETATM   19  C   UNL     1       2.763   4.499  -9.780  1.00  0.00     0.025 A 
HETATM   20  C   UNL     1       2.393   3.795 -11.032  1.00  0.00     0.070 C 
HETATM   21  N   UNL     1       2.997   5.815  -9.771  1.00  0.00    -0.302 N 
HETATM   22  N   UNL     1       3.251   6.094  -8.479  1.00  0.00    -0.281 N 
ATOM     23  HN  UNL     1       2.986   6.460 -10.561  1.00  0.00     0.186 HD
HETATM   24  C   UNL     1       3.452   7.465  -8.079  1.00  0.00     0.179 C 
ENDBRANCH   4  17
TORSDOF 4
