REMARK  4 active torsions:
REMARK  status: ('A' for Active; 'I' for Inactive)
REMARK    1  A    between atoms: C_2  and  C_3 
REMARK       I    between atoms: C_2  and  N_10 
REMARK    2  A    between atoms: C_3  and  N_4 
REMARK    3  A    between atoms: N_10  and  C_11 
REMARK    4  A    between atoms: C_11  and  C_12 
ROOT
HETATM    1  O   UNL     1       2.901  -2.413  -0.923  1.00  0.00    -0.272 OA
HETATM    2  C   UNL     1       2.353  -1.317  -1.022  1.00  0.00     0.237 C 
HETATM    3  N   UNL     1       3.046  -0.137  -1.213  1.00  0.00    -0.359 N 
HETATM    4  H   UNL     1       2.546   0.732  -1.042  1.00  0.00     0.162 HD
ENDROOT
BRANCH   3   5
HETATM    5  C   UNL     1       4.495  -0.091  -1.233  1.00  0.00     0.128 C 
BRANCH   5   6
HETATM    6  C   UNL     1       5.067  -0.177  -2.651  1.00  0.00     0.018 C 
HETATM    7  C   UNL     1       4.751  -1.509  -3.358  1.00  0.00     0.022 C 
HETATM    8  C   UNL     1       5.807  -1.815  -4.420  1.00  0.00     0.141 C 
HETATM    9  S   UNL     1       7.101  -0.616  -4.230  1.00  0.00     0.144 S 
HETATM   10  O   UNL     1       8.373  -1.292  -4.101  1.00  0.00    -0.228 OA
HETATM   11  O   UNL     1       6.885   0.452  -5.187  1.00  0.00    -0.228 OA
HETATM   12  C   UNL     1       6.587  -0.041  -2.632  1.00  0.00     0.146 C 
ENDBRANCH   5   6
ENDBRANCH   3   5
BRANCH   2  13
HETATM   13  C   UNL     1       0.852  -1.168  -0.972  1.00  0.00     0.250 C 
BRANCH  13  14
HETATM   14  N   UNL     1       0.404  -1.007   0.394  1.00  0.00    -0.295 N 
HETATM   15  C   UNL     1      -0.013  -1.989   1.243  1.00  0.00     0.112 A 
HETATM   16  C   UNL     1      -0.368  -1.357   2.411  1.00  0.00     0.037 A 
HETATM   17  C   UNL     1      -0.134   0.007   2.163  1.00  0.00     0.108 A 
HETATM   18  N   UNL     1       0.334   0.230   0.931  1.00  0.00    -0.310 N 
ATOM     19  HN  UNL     1       0.579   1.121   0.500  1.00  0.00     0.186 HD
ENDBRANCH  13  14
ENDBRANCH   2  13
TORSDOF 4
