REMARK  8 active torsions:
REMARK  status: ('A' for Active; 'I' for Inactive)
REMARK    1  A    between atoms: C_2  and  C_3 
REMARK    2  A    between atoms: C_2  and  N_10 
REMARK    3  A    between atoms: C_3  and  N_4 
REMARK    4  A    between atoms: N_10  and  C_11 
REMARK    5  A    between atoms: C_11  and  C_12 
REMARK    6  A    between atoms: C_12  and  O_13 
REMARK    7  A    between atoms: C_12  and  C_14 
REMARK    8  A    between atoms: C_14  and  N_15 
ROOT
HETATM    1  C   UNL     1       5.043   1.895   2.223  1.00  0.00     0.164 C 
ENDROOT
BRANCH   1   2
HETATM    2  C   UNL     1       4.571   1.011   1.052  1.00  0.00     0.303 C 
BRANCH   2   3
HETATM    3  N   UNL     1       3.109   1.013   0.957  1.00  0.00     0.091 N 
HETATM    4  H   UNL     1       2.723   0.769   1.874  1.00  0.00     0.316 HD
BRANCH   3   5
HETATM    5  C   UNL     1       2.586   0.093  -0.076  1.00  0.00     0.236 C 
HETATM    6  C   UNL     1       1.056   0.129   0.024  1.00  0.00     0.044 C 
BRANCH   5   7
HETATM    7  C   UNL     1       3.060   0.486  -1.492  1.00  0.00     0.183 C 
BRANCH   7   8
HETATM    8  N   UNL     1       2.545  -0.368  -2.543  1.00  0.00    -0.302 N 
HETATM    9  C   UNL     1       1.819   0.026  -3.630  1.00  0.00     0.111 A 
HETATM   10  C   UNL     1       1.566  -1.118  -4.347  1.00  0.00     0.037 A 
HETATM   11  C   UNL     1       2.198  -2.144  -3.621  1.00  0.00     0.108 A 
HETATM   12  N   UNL     1       2.812  -1.688  -2.527  1.00  0.00    -0.310 N 
ATOM     13  HN  UNL     1       3.354  -2.214  -1.842  1.00  0.00     0.186 HD
ENDBRANCH   7   8
ENDBRANCH   5   7
ENDBRANCH   3   5
ENDBRANCH   2   3
ENDBRANCH   1   2
BRANCH   1  14
HETATM   14  O   UNL     1       4.554   1.342   3.455  1.00  0.00    -0.392 OA
HETATM   15  H   UNL     1       4.929   0.453   3.574  1.00  0.00     0.210 HD
ENDBRANCH   1  14
BRANCH   1  16
HETATM   16  C   UNL     1       6.572   1.963   2.213  1.00  0.00     0.163 C 
BRANCH  16  17
HETATM   17  N   UNL     1       7.110   2.841   3.229  1.00  0.00    -0.339 N 
HETATM   18  C   UNL     1       7.465   2.447   4.489  1.00  0.00     0.184 A 
HETATM   19  N   UNL     1       8.043   3.420   5.155  1.00  0.00    -0.350 N 
HETATM   20  C   UNL     1       8.037   4.492   4.297  1.00  0.00     0.060 A 
ATOM     21  HN  UNL     1       8.416   3.387   6.104  1.00  0.00     0.166 HD
HETATM   22  C   UNL     1       8.536   5.787   4.488  1.00  0.00     0.039 A 
HETATM   23  C   UNL     1       7.443   4.164   3.081  1.00  0.00     0.062 A 
HETATM   24  C   UNL     1       8.428   6.740   3.456  1.00  0.00    -0.054 A 
HETATM   25  C   UNL     1       9.001   8.111   3.699  1.00  0.00     0.049 C 
HETATM   26  C   UNL     1       7.801   6.394   2.242  1.00  0.00    -0.054 A 
HETATM   27  C   UNL     1       7.626   7.373   1.109  1.00  0.00     0.049 C 
HETATM   28  C   UNL     1       7.301   5.089   2.042  1.00  0.00     0.039 A 
ENDBRANCH  16  17
ENDBRANCH   1  16
TORSDOF 8
