REMARK  2 active torsions:
REMARK  status: ('A' for Active; 'I' for Inactive)
REMARK    1  A    between atoms: C_6  and  N_7 
REMARK    2  A    between atoms: N_7  and  C_8 
ROOT
HETATM    1  C   UNL     1       1.079  -0.037  -0.046  1.00  0.00     0.052 C 
HETATM    2  C   UNL     1       2.572   0.012  -0.009  1.00  0.00    -0.023 A 
HETATM    3  C   UNL     1       3.350  -1.127  -0.007  1.00  0.00     0.114 A 
HETATM    4  N   UNL     1       4.699  -1.129   0.078  1.00  0.00    -0.201 N 
ATOM      5  HN  UNL     1       5.230  -2.000   0.086  1.00  0.00     0.183 HD
HETATM    6  C   UNL     1       5.309   0.062   0.152  1.00  0.00     0.678 A 
HETATM    7  N   UNL     1       4.644   1.221   0.114  1.00  0.00    -0.196 N 
ATOM      8  HN  UNL     1       5.146   2.109   0.137  1.00  0.00     0.184 HD
HETATM    9  C   UNL     1       3.290   1.194   0.044  1.00  0.00     0.030 A 
HETATM   10  C   UNL     1       2.611   2.531   0.052  1.00  0.00     0.069 C 
ENDROOT
BRANCH   6  11
HETATM   11  N   UNL     1       6.670   0.164   0.338  1.00  0.00    -0.219 N 
HETATM   12  H   UNL     1       6.981   1.086   0.073  1.00  0.00     0.178 HD
BRANCH  11  13
HETATM   13  C   UNL     1       7.557  -0.961   0.076  1.00  0.00     0.123 C 
HETATM   14  C   UNL     1       8.731  -0.887   1.073  1.00  0.00     0.030 C 
HETATM   15  C   UNL     1       9.903  -0.039   0.593  1.00  0.00     0.028 C 
HETATM   16  C   UNL     1      10.261  -0.407  -0.836  1.00  0.00     0.167 C 
HETATM   17  O   UNL     1       9.138  -0.116  -1.667  1.00  0.00    -0.389 OA
HETATM   18  C   UNL     1       8.033  -0.985  -1.394  1.00  0.00     0.193 C 
ENDBRANCH  11  13
ENDBRANCH   6  11
TORSDOF 2
