REMARK  6 active torsions:
REMARK  status: ('A' for Active; 'I' for Inactive)
REMARK    1  A    between atoms: C_8  and  C_9 
REMARK    2  A    between atoms: C_8  and  N_12 
REMARK    3  A    between atoms: C_9  and  O_10 
REMARK    4  A    between atoms: N_12  and  C_13 
REMARK    5  A    between atoms: C_13  and  C_14 
REMARK    6  A    between atoms: C_14  and  N_15 
ROOT
HETATM    1  C   UNL     1       1.146   0.340   0.811  1.00  0.00     0.010 C 
HETATM    2  C   UNL     1       2.519   0.153   0.168  1.00  0.00    -0.015 C 
HETATM    3  C   UNL     1       2.837   1.187  -0.919  1.00  0.00     0.013 C 
HETATM    4  C   UNL     1       2.501   0.821  -2.383  1.00  0.00    -0.045 C 
HETATM    5  C   UNL     1       1.056   1.212  -2.746  1.00  0.00     0.015 C 
HETATM    6  C   UNL     1       3.398   1.699  -3.299  1.00  0.00     0.015 C 
HETATM    7  C   UNL     1       2.821  -0.671  -2.690  1.00  0.00     0.052 C 
HETATM    8  C   UNL     1       2.349  -1.734  -1.653  1.00  0.00     0.179 C 
HETATM    9  C   UNL     1       2.807  -1.295  -0.246  1.00  0.00     0.048 C 
ENDROOT
BRANCH   8  10
HETATM   10  C   UNL     1       0.817  -1.978  -1.740  1.00  0.00     0.205 C 
BRANCH  10  11
HETATM   11  O   UNL     1       0.469  -2.506  -3.022  1.00  0.00    -0.398 OA
HETATM   12  H   UNL     1       1.251  -3.025  -3.298  1.00  0.00     0.209 HD
ENDBRANCH  10  11
ENDBRANCH   8  10
BRANCH   8  13
HETATM   13  N   UNL     1       3.035  -3.032  -2.043  1.00  0.00     0.097 N 
HETATM   14  H   UNL     1       4.045  -2.863  -2.044  1.00  0.00     0.317 HD
BRANCH  13  15
HETATM   15  C   UNL     1       2.750  -4.167  -1.137  1.00  0.00     0.292 C 
BRANCH  15  16
HETATM   16  C   UNL     1       3.499  -5.456  -1.495  1.00  0.00     0.180 C 
BRANCH  16  17
HETATM   17  N   UNL     1       3.115  -6.527  -0.595  1.00  0.00    -0.285 N 
HETATM   18  C   UNL     1       2.051  -7.368  -0.704  1.00  0.00     0.201 A 
HETATM   19  N   UNL     1       1.990  -8.142   0.355  1.00  0.00    -0.346 N 
HETATM   20  C   UNL     1       3.057  -7.720   1.102  1.00  0.00     0.198 A 
ATOM     21  HN  UNL     1       1.315  -8.876   0.568  1.00  0.00     0.167 HD
HETATM   22  N   UNL     1       3.772  -6.727   0.566  1.00  0.00    -0.293 N 
ATOM     23  HN  UNL     1       4.594  -6.249   0.935  1.00  0.00     0.188 HD
ENDBRANCH  16  17
ENDBRANCH  15  16
ENDBRANCH  13  15
ENDBRANCH   8  13
TORSDOF 6
