REMARK  6 active torsions:
REMARK  status: ('A' for Active; 'I' for Inactive)
REMARK    1  A    between atoms: C_2  and  C_3 
REMARK       I    between atoms: N_8  and  C_9 
REMARK    2  A    between atoms: C_9  and  C_11 
REMARK    3  A    between atoms: C_11  and  N_13 
REMARK    4  A    between atoms: N_13  and  C_14 
REMARK    5  A    between atoms: C_14  and  C_15 
REMARK    6  A    between atoms: C_15  and  C_16 
ROOT
HETATM    1  C   UNL     1       5.079   0.551   2.287  1.00  0.00     0.307 C 
HETATM    2  C   UNL     1       4.634  -0.434   3.367  1.00  0.00     0.053 C 
ENDROOT
BRANCH   1   3
HETATM    3  C   UNL     1       5.169  -0.181   0.924  1.00  0.00     0.253 C 
HETATM    4  N   UNL     1       4.444   0.338  -0.153  1.00  0.00    -0.346 N 
HETATM    5  C   UNL     1       3.104   0.945  -0.014  1.00  0.00     0.087 C 
HETATM    6  C   UNL     1       4.765  -0.177  -1.487  1.00  0.00     0.126 C 
HETATM    7  C   UNL     1       2.954   2.069  -1.045  1.00  0.00     0.025 C 
HETATM    8  C   UNL     1       3.187   1.578  -2.469  1.00  0.00     0.004 C 
HETATM    9  C   UNL     1       4.525   0.855  -2.589  1.00  0.00     0.020 C 
HETATM   10  O   UNL     1       5.966  -1.116   0.783  1.00  0.00    -0.271 OA
BRANCH   5  11
HETATM   11  C   UNL     1       2.029  -0.164  -0.096  1.00  0.00     0.021 C 
HETATM   12  C   UNL     1       0.605   0.310   0.132  1.00  0.00     0.007 C 
ENDBRANCH   5  11
ENDBRANCH   1   3
BRANCH   1  13
HETATM   13  N   UNL     1       6.414   1.097   2.658  1.00  0.00     0.097 N 
HETATM   14  H   UNL     1       7.061   0.302   2.660  1.00  0.00     0.317 HD
BRANCH  13  15
HETATM   15  C   UNL     1       6.927   2.079   1.683  1.00  0.00     0.276 C 
BRANCH  15  16
HETATM   16  C   UNL     1       6.088   3.357   1.580  1.00  0.00     0.087 C 
BRANCH  16  17
HETATM   17  C   UNL     1       6.650   4.301   0.549  1.00  0.00     0.010 A 
HETATM   18  C   UNL     1       7.543   5.301   0.915  1.00  0.00     0.025 A 
HETATM   19  C   UNL     1       8.020   6.165  -0.066  1.00  0.00     0.003 A 
HETATM   20  C   UNL     1       7.600   6.002  -1.381  1.00  0.00     0.017 A 
HETATM   21  C   UNL     1       6.721   4.972  -1.662  1.00  0.00     0.088 A 
HETATM   22  N   UNL     1       6.238   4.123  -0.731  1.00  0.00    -0.369 N 
ATOM     23  HN  UNL     1       5.589   3.377  -0.980  1.00  0.00     0.165 HD
ENDBRANCH  16  17
ENDBRANCH  15  16
ENDBRANCH  13  15
ENDBRANCH   1  13
TORSDOF 6
