REMARK  3 active torsions:
REMARK  status: ('A' for Active; 'I' for Inactive)
REMARK    1  A    between atoms: N_11  and  C_12 
REMARK    2  A    between atoms: C_12  and  C_13 
REMARK    3  A    between atoms: C_13  and  O_14 
ROOT
HETATM    1  C   UNL     1       3.734   1.201   5.096  1.00  0.00     0.164 C 
HETATM    2  N   UNL     1       4.038   0.802   3.735  1.00  0.00    -0.269 N 
HETATM    3  C   UNL     1       3.743  -0.516   3.345  1.00  0.00     0.332 C 
HETATM    4  O   UNL     1       3.128  -1.287   4.087  1.00  0.00    -0.246 OA
HETATM    5  N   UNL     1       4.170  -0.910   2.074  1.00  0.00    -0.287 N 
HETATM    6  C   UNL     1       3.855  -2.238   1.578  1.00  0.00     0.163 C 
HETATM    7  C   UNL     1       4.825  -0.003   1.269  1.00  0.00     0.145 A 
HETATM    8  N   UNL     1       5.331  -0.253   0.033  1.00  0.00    -0.336 N 
ATOM      9  HN  UNL     1       5.359  -1.144  -0.462  1.00  0.00     0.168 HD
HETATM   10  C   UNL     1       5.777   0.915  -0.382  1.00  0.00     0.185 A 
HETATM   11  N   UNL     1       5.549   1.913   0.539  1.00  0.00    -0.333 N 
HETATM   12  C   UNL     1       5.005   1.300   1.641  1.00  0.00     0.149 A 
HETATM   13  C   UNL     1       4.585   1.792   2.908  1.00  0.00     0.282 C 
HETATM   14  O   UNL     1       4.695   2.966   3.249  1.00  0.00    -0.265 OA
ENDROOT
BRANCH  11  15
HETATM   15  C   UNL     1       5.515   3.329   0.231  1.00  0.00     0.168 C 
BRANCH  15  16
HETATM   16  C   UNL     1       6.841   4.068  -0.091  1.00  0.00     0.074 C 
HETATM   17  C   UNL     1       7.907   4.050   1.015  1.00  0.00     0.039 C 
HETATM   18  C   UNL     1       7.539   4.866   2.251  1.00  0.00     0.003 C 
HETATM   19  C   UNL     1       7.028   6.273   1.937  1.00  0.00     0.000 C 
HETATM   20  C   UNL     1       6.015   6.315   0.799  1.00  0.00     0.003 C 
HETATM   21  C   UNL     1       6.521   5.545  -0.419  1.00  0.00     0.039 C 
BRANCH  16  22
HETATM   22  O   UNL     1       7.405   3.505  -1.286  1.00  0.00    -0.388 OA
HETATM   23  H   UNL     1       7.993   2.770  -1.037  1.00  0.00     0.210 HD
ENDBRANCH  16  22
ENDBRANCH  15  16
ENDBRANCH  11  15
TORSDOF 3
