REMARK  5 active torsions:
REMARK  status: ('A' for Active; 'I' for Inactive)
REMARK    1  A    between atoms: C_8  and  C_9 
REMARK    2  A    between atoms: C_9  and  C_10 
REMARK       I    between atoms: C_10  and  N_12 
REMARK    3  A    between atoms: N_12  and  C_13 
REMARK    4  A    between atoms: C_13  and  C_20 
REMARK    5  A    between atoms: C_20  and  O_22 
ROOT
HETATM    1  C   UNL     1       1.943   4.384  -1.442  1.00  0.00     0.223 C 
HETATM    2  O   UNL     1       1.382   4.781  -2.459  1.00  0.00    -0.273 OA
HETATM    3  N   UNL     1       1.319   4.277  -0.204  1.00  0.00    -0.342 N 
HETATM    4  H   UNL     1       1.669   3.496   0.348  1.00  0.00     0.163 HD
ENDROOT
BRANCH   3   5
HETATM    5  C   UNL     1      -0.168   4.554  -0.031  1.00  0.00     0.118 C 
HETATM    6  C   UNL     1      -0.930   3.503  -0.870  1.00  0.00     0.042 C 
HETATM    7  C   UNL     1      -2.446   3.403  -0.736  1.00  0.00     0.003 C 
HETATM    8  C   UNL     1      -3.280   4.487  -1.409  1.00  0.00     0.000 C 
HETATM    9  C   UNL     1      -2.622   5.830  -1.689  1.00  0.00     0.000 C 
HETATM   10  C   UNL     1      -1.919   6.454  -0.491  1.00  0.00     0.003 C 
HETATM   11  C   UNL     1      -0.455   6.037  -0.371  1.00  0.00     0.042 C 
BRANCH   5  12
HETATM   12  C   UNL     1      -0.457   4.401   1.503  1.00  0.00     0.169 C 
HETATM   13  O   UNL     1      -1.545   4.238   2.024  1.00  0.00    -0.648 OA
BRANCH  12  14
HETATM   14  O   UNL     1       0.658   4.592   2.262  1.00  0.00    -0.775 OA
HETATM   15  H   UNL     1       1.387   4.933   1.711  1.00  0.00     0.167 HD
ENDBRANCH  12  14
ENDBRANCH   5  12
ENDBRANCH   3   5
BRANCH   1  16
HETATM   16  C   UNL     1       3.414   4.008  -1.460  1.00  0.00     0.146 C 
BRANCH  16  17
HETATM   17  C   UNL     1       3.676   2.567  -1.723  1.00  0.00     0.006 A 
HETATM   18  C   UNL     1       3.311   1.752  -2.837  1.00  0.00     0.038 A 
HETATM   19  C   UNL     1       2.523   2.092  -4.048  1.00  0.00     0.071 C 
HETATM   20  N   UNL     1       3.799   0.512  -2.712  1.00  0.00    -0.265 N 
HETATM   21  O   UNL     1       4.509   0.496  -1.534  1.00  0.00    -0.242 OA
ATOM     22  HN  UNL     1       3.670  -0.265  -3.360  1.00  0.00     0.194 HD
HETATM   23  C   UNL     1       4.442   1.717  -0.948  1.00  0.00     0.081 A 
HETATM   24  C   UNL     1       5.191   1.871   0.313  1.00  0.00     0.079 C 
ENDBRANCH  16  17
ENDBRANCH   1  16
TORSDOF 5
