REMARK  5 active torsions:
REMARK  status: ('A' for Active; 'I' for Inactive)
REMARK    1  A    between atoms: O_2  and  C_3 
REMARK    2  A    between atoms: C_6  and  N_7 
REMARK       I    between atoms: N_7  and  C_8 
REMARK       I    between atoms: C_8  and  N_10 
REMARK    3  A    between atoms: N_10  and  C_11 
REMARK    4  A    between atoms: C_11  and  C_12 
REMARK       I    between atoms: C_12  and  N_14 
REMARK    5  A    between atoms: N_14  and  C_15 
ROOT
HETATM    1  N   UNL     1       5.555   4.811   0.043  1.00  0.00    -0.308 N 
HETATM    2  C   UNL     1       6.915   4.908   0.227  1.00  0.00     0.321 C 
HETATM    3  O   UNL     1       7.686   3.973   0.413  1.00  0.00    -0.247 OA
HETATM    4  N   UNL     1       7.373   6.208   0.131  1.00  0.00    -0.334 N 
HETATM    5  H   UNL     1       5.102   5.633  -0.328  1.00  0.00     0.170 HD
HETATM    6  H   UNL     1       6.759   6.967   0.393  1.00  0.00     0.164 HD
ENDROOT
BRANCH   1   7
HETATM    7  C   UNL     1       4.791   3.617   0.095  1.00  0.00     0.051 A 
HETATM    8  C   UNL     1       5.255   2.409   0.613  1.00  0.00     0.035 A 
HETATM    9  C   UNL     1       4.434   1.283   0.611  1.00  0.00     0.058 A 
HETATM   10  C   UNL     1       3.155   1.392   0.092  1.00  0.00     0.141 A 
HETATM   11  N   UNL     1       2.654   2.540  -0.408  1.00  0.00    -0.345 N 
HETATM   12  C   UNL     1       3.483   3.617  -0.391  1.00  0.00     0.119 A 
ATOM     13  HN  UNL     1       1.705   2.597  -0.778  1.00  0.00     0.167 HD
BRANCH  10  14
HETATM   14  O   UNL     1       2.389   0.243   0.107  1.00  0.00    -0.341 OA
HETATM   15  C   UNL     1       1.083   0.429  -0.426  1.00  0.00     0.211 C 
ENDBRANCH  10  14
ENDBRANCH   1   7
BRANCH   4  16
HETATM   16  C   UNL     1       8.795   6.424   0.327  1.00  0.00     0.227 C 
BRANCH  16  17
HETATM   17  C   UNL     1       9.297   7.879   0.312  1.00  0.00     0.235 C 
HETATM   18  O   UNL     1       8.551   8.846   0.228  1.00  0.00    -0.272 OA
HETATM   19  N   UNL     1      10.674   7.934   0.433  1.00  0.00    -0.355 N 
HETATM   20  H   UNL     1      11.130   7.046   0.611  1.00  0.00     0.162 HD
BRANCH  19  21
HETATM   21  C   UNL     1      11.545   9.096   0.609  1.00  0.00     0.084 C 
HETATM   22  C   UNL     1      11.607   9.559   2.070  1.00  0.00     0.025 C 
HETATM   23  C   UNL     1      10.621  10.668   2.407  1.00  0.00     0.002 C 
HETATM   24  C   UNL     1      10.802  11.845   1.460  1.00  0.00     0.000 C 
HETATM   25  C   UNL     1      10.534  11.421   0.022  1.00  0.00     0.002 C 
HETATM   26  C   UNL     1      11.386  10.230  -0.416  1.00  0.00     0.025 C 
ENDBRANCH  19  21
ENDBRANCH  16  17
ENDBRANCH   4  16
TORSDOF 5
