REMARK  5 active torsions:
REMARK  status: ('A' for Active; 'I' for Inactive)
REMARK       I    between atoms: C_2  and  N_3 
REMARK       I    between atoms: C_2  and  N_11 
REMARK    1  A    between atoms: N_3  and  C_4 
REMARK    2  A    between atoms: C_4  and  C_5 
REMARK    3  A    between atoms: C_5  and  N_6 
REMARK    4  A    between atoms: N_11  and  C_12 
REMARK    5  A    between atoms: C_15  and  N_19 
ROOT
HETATM    1  C   UNL     1       4.521   1.013   0.568  1.00  0.00     0.051 A 
HETATM    2  C   UNL     1       5.329   0.431  -0.398  1.00  0.00     0.035 A 
HETATM    3  C   UNL     1       6.705   0.390  -0.213  1.00  0.00     0.051 A 
HETATM    4  C   UNL     1       7.279   0.963   0.919  1.00  0.00     0.103 A 
HETATM    5  N   UNL     1       6.513   1.619   1.817  1.00  0.00    -0.350 N 
ATOM      6  HN  UNL     1       6.931   2.078   2.626  1.00  0.00     0.166 HD
HETATM    7  C   UNL     1       5.171   1.651   1.614  1.00  0.00     0.119 A 
ENDROOT
BRANCH   1   8
HETATM    8  N   UNL     1       3.115   0.958   0.549  1.00  0.00    -0.308 N 
HETATM    9  C   UNL     1       2.276   0.079  -0.078  1.00  0.00     0.320 C 
HETATM   10  O   UNL     1       1.065   0.275  -0.055  1.00  0.00    -0.247 OA
HETATM   11  N   UNL     1       2.858  -1.019  -0.647  1.00  0.00    -0.341 N 
HETATM   12  H   UNL     1       3.651  -1.350  -0.116  1.00  0.00     0.164 HD
HETATM   13  H   UNL     1       2.608   1.605   1.141  1.00  0.00     0.170 HD
BRANCH  11  14
HETATM   14  C   UNL     1       2.082  -2.073  -1.271  1.00  0.00     0.154 C 
BRANCH  14  15
HETATM   15  C   UNL     1       1.233  -1.618  -2.472  1.00  0.00     0.292 C 
BRANCH  15  16
HETATM   16  N   UNL     1       0.474  -2.722  -3.084  1.00  0.00     0.090 N 
HETATM   17  C   UNL     1      -0.383  -2.242  -4.178  1.00  0.00     0.272 C 
HETATM   18  C   UNL     1      -1.612  -3.147  -4.171  1.00  0.00     0.032 C 
HETATM   19  C   UNL     1      -1.377  -4.129  -3.039  1.00  0.00     0.032 C 
HETATM   20  C   UNL     1      -0.415  -3.394  -2.131  1.00  0.00     0.272 C 
ENDBRANCH  15  16
ENDBRANCH  14  15
ENDBRANCH  11  14
ENDBRANCH   1   8
BRANCH   4  21
HETATM   21  N   UNL     1       8.620   0.792   1.164  1.00  0.00    -0.363 N 
HETATM   22  C   UNL     1       9.135   0.855   2.536  1.00  0.00     0.150 C 
HETATM   23  C   UNL     1      10.119   2.018   2.709  1.00  0.00     0.187 C 
HETATM   24  O   UNL     1      11.141   2.008   1.697  1.00  0.00    -0.388 OA
HETATM   25  C   UNL     1      10.543   2.127   0.398  1.00  0.00     0.187 C 
HETATM   26  C   UNL     1       9.612   0.943   0.097  1.00  0.00     0.150 C 
ENDBRANCH   4  21
TORSDOF 5
