REMARK  6 active torsions:
REMARK  status: ('A' for Active; 'I' for Inactive)
REMARK    1  A    between atoms: S_2  and  C_5 
REMARK    2  A    between atoms: C_5  and  C_6 
REMARK    3  A    between atoms: N_15  and  C_16 
REMARK    4  A    between atoms: C_16  and  C_17 
REMARK    5  A    between atoms: C_17  and  O_18 
REMARK    6  A    between atoms: C_17  and  C_19 
ROOT
HETATM    1  C   UNL     1       4.932   1.197   1.105  1.00  0.00     0.098 A 
HETATM    2  N   UNL     1       5.610   2.330   1.111  1.00  0.00    -0.343 N 
ATOM      3  HN  UNL     1       5.225   3.275   1.124  1.00  0.00     0.167 HD
HETATM    4  C   UNL     1       6.936   1.980   1.096  1.00  0.00     0.060 A 
HETATM    5  C   UNL     1       8.075   2.800   1.110  1.00  0.00     0.032 A 
HETATM    6  C   UNL     1       9.341   2.199   1.105  1.00  0.00     0.002 A 
HETATM    7  C   UNL     1       9.469   0.812   1.080  1.00  0.00     0.002 A 
HETATM    8  C   UNL     1       8.342  -0.020   1.061  1.00  0.00     0.032 A 
HETATM    9  C   UNL     1       7.084   0.598   1.071  1.00  0.00     0.062 A 
HETATM   10  N   UNL     1       5.790   0.113   1.070  1.00  0.00    -0.331 N 
ENDROOT
BRANCH  10  11
HETATM   11  C   UNL     1       5.437  -1.294   1.179  1.00  0.00     0.167 C 
BRANCH  11  12
HETATM   12  C   UNL     1       5.213  -2.018  -0.160  1.00  0.00     0.169 C 
BRANCH  12  13
HETATM   13  O   UNL     1       6.434  -2.091  -0.893  1.00  0.00    -0.389 OA
HETATM   14  H   UNL     1       6.959  -2.824  -0.530  1.00  0.00     0.210 HD
ENDBRANCH  12  13
BRANCH  12  15
HETATM   15  C   UNL     1       4.661  -3.426   0.001  1.00  0.00    -0.028 A 
HETATM   16  C   UNL     1       3.874  -3.978  -1.027  1.00  0.00     0.010 A 
HETATM   17  C   UNL     1       3.325  -5.259  -0.907  1.00  0.00     0.001 A 
HETATM   18  C   UNL     1       3.563  -6.018   0.234  1.00  0.00     0.000 A 
HETATM   19  C   UNL     1       4.364  -5.502   1.250  1.00  0.00     0.001 A 
HETATM   20  C   UNL     1       4.914  -4.222   1.132  1.00  0.00     0.010 A 
ENDBRANCH  12  15
ENDBRANCH  11  12
ENDBRANCH  10  11
BRANCH   1  21
HETATM   21  C   UNL     1       3.449   1.122   1.086  1.00  0.00     0.216 C 
BRANCH  21  22
HETATM   22  S   UNL     1       2.805   1.036   2.752  1.00  0.00     0.147 S 
HETATM   23  C   UNL     1       3.363   2.514   3.565  1.00  0.00     0.161 C 
HETATM   24  O   UNL     1       3.401  -0.096   3.437  1.00  0.00    -0.228 OA
HETATM   25  O   UNL     1       1.357   1.125   2.651  1.00  0.00    -0.228 OA
ENDBRANCH  21  22
ENDBRANCH   1  21
TORSDOF 6
