REMARK  3 active torsions:
REMARK  status: ('A' for Active; 'I' for Inactive)
REMARK    1  A    between atoms: O_2  and  C_3 
REMARK    2  A    between atoms: C_9  and  N_10 
REMARK       I    between atoms: N_10  and  C_11 
REMARK       I    between atoms: C_11  and  N_13 
REMARK    3  A    between atoms: N_13  and  C_14 
ROOT
HETATM    1  N   UNL     1       0.784  -2.235  -0.927  1.00  0.00    -0.305 N 
HETATM    2  C   UNL     1       0.033  -1.188  -1.419  1.00  0.00     0.321 C 
HETATM    3  O   UNL     1       0.410  -0.360  -2.242  1.00  0.00    -0.247 OA
HETATM    4  N   UNL     1      -1.220  -1.099  -0.854  1.00  0.00    -0.337 N 
HETATM    5  H   UNL     1       0.308  -3.023  -0.506  1.00  0.00     0.171 HD
HETATM    6  H   UNL     1      -1.498  -1.797  -0.180  1.00  0.00     0.164 HD
ENDROOT
BRANCH   1   7
HETATM    7  C   UNL     1       2.195  -2.392  -1.096  1.00  0.00     0.087 A 
HETATM    8  C   UNL     1       2.840  -3.590  -0.742  1.00  0.00     0.169 A 
HETATM    9  N   UNL     1       4.187  -3.768  -0.808  1.00  0.00    -0.345 N 
HETATM   10  C   UNL     1       4.927  -2.739  -1.265  1.00  0.00     0.090 A 
ATOM     11  HN  UNL     1       4.620  -4.646  -0.523  1.00  0.00     0.167 HD
HETATM   12  C   UNL     1       4.388  -1.532  -1.655  1.00  0.00     0.019 A 
HETATM   13  C   UNL     1       3.010  -1.357  -1.554  1.00  0.00     0.035 A 
BRANCH   8  14
HETATM   14  O   UNL     1       2.065  -4.664  -0.338  1.00  0.00    -0.339 OA
HETATM   15  C   UNL     1       2.851  -5.829  -0.056  1.00  0.00     0.211 C 
ENDBRANCH   8  14
ENDBRANCH   1   7
BRANCH   4  16
HETATM   16  C   UNL     1      -2.121   0.034  -1.099  1.00  0.00     0.101 C 
HETATM   17  C   UNL     1      -2.646   0.106  -2.548  1.00  0.00     0.041 C 
HETATM   18  C   UNL     1      -3.015   1.548  -2.905  1.00  0.00     0.142 C 
HETATM   19  S   UNL     1      -2.637   2.553  -1.492  1.00  0.00     0.146 S 
HETATM   20  O   UNL     1      -1.907   3.731  -1.913  1.00  0.00    -0.228 OA
HETATM   21  O   UNL     1      -3.829   2.641  -0.668  1.00  0.00    -0.228 OA
HETATM   22  C   UNL     1      -1.528   1.398  -0.735  1.00  0.00     0.165 C 
ENDBRANCH   4  16
TORSDOF 3
