REMARK  3 active torsions:
REMARK  status: ('A' for Active; 'I' for Inactive)
REMARK    1  A    between atoms: C_5  and  N_8 
REMARK       I    between atoms: N_8  and  C_9 
REMARK       I    between atoms: C_9  and  N_11 
REMARK    2  A    between atoms: N_11  and  C_12 
REMARK    3  A    between atoms: C_14  and  C_19 
ROOT
HETATM    1  N   UNL     1       4.537  -0.721  -3.018  1.00  0.00    -0.338 N 
HETATM    2  C   UNL     1       5.137   0.261  -3.767  1.00  0.00     0.321 C 
HETATM    3  O   UNL     1       4.507   1.169  -4.301  1.00  0.00    -0.247 OA
HETATM    4  N   UNL     1       6.494   0.061  -3.897  1.00  0.00    -0.304 N 
HETATM    5  H   UNL     1       5.097  -1.076  -2.254  1.00  0.00     0.164 HD
HETATM    6  H   UNL     1       6.738  -0.920  -3.999  1.00  0.00     0.171 HD
ENDROOT
BRANCH   4   7
HETATM    7  C   UNL     1       7.233   0.906  -4.703  1.00  0.00     0.105 A 
HETATM    8  C   UNL     1       7.159   2.247  -4.646  1.00  0.00     0.052 A 
HETATM    9  C   UNL     1       7.767   3.091  -5.659  1.00  0.00     0.065 A 
HETATM   10  C   UNL     1       8.428   2.500  -6.670  1.00  0.00     0.107 A 
HETATM   11  N   UNL     1       8.577   1.134  -6.720  1.00  0.00    -0.331 N 
HETATM   12  C   UNL     1       8.065   0.271  -5.779  1.00  0.00     0.272 A 
HETATM   13  H   UNL     1       9.071   0.704  -7.493  1.00  0.00     0.168 HD
HETATM   14  O   UNL     1       8.228  -0.946  -5.829  1.00  0.00    -0.266 OA
BRANCH   9  15
HETATM   15  C   UNL     1       7.570   4.575  -5.582  1.00  0.00     0.418 C 
HETATM   16  F   UNL     1       6.869   4.974  -4.489  1.00  0.00    -0.166 F 
HETATM   17  F   UNL     1       8.759   5.232  -5.537  1.00  0.00    -0.166 F 
HETATM   18  F   UNL     1       6.907   5.052  -6.669  1.00  0.00    -0.166 F 
ENDBRANCH   9  15
ENDBRANCH   4   7
BRANCH   1  19
HETATM   19  C   UNL     1       3.084  -0.705  -2.857  1.00  0.00     0.089 C 
HETATM   20  C   UNL     1       2.622   0.321  -1.817  1.00  0.00     0.055 C 
HETATM   21  C   UNL     1       2.889  -0.157  -0.391  1.00  0.00     0.274 C 
HETATM   22  N   UNL     1       2.358  -1.494  -0.098  1.00  0.00     0.084 N 
HETATM   23  C   UNL     1       0.903  -1.490   0.046  1.00  0.00     0.309 C 
HETATM   24  C   UNL     1       2.817  -2.486  -1.077  1.00  0.00     0.274 C 
HETATM   25  C   UNL     1       2.554  -2.099  -2.531  1.00  0.00     0.055 C 
ENDBRANCH   1  19
TORSDOF 3
