REMARK  7 active torsions:
REMARK  status: ('A' for Active; 'I' for Inactive)
REMARK       I    between atoms: N_1  and  C_2 
REMARK    1  A    between atoms: C_2  and  C_4 
REMARK    2  A    between atoms: C_4  and  N_5 
REMARK    3  A    between atoms: C_6  and  S_7 
REMARK    4  A    between atoms: S_7  and  C_8 
REMARK    5  A    between atoms: C_8  and  C_9 
REMARK       I    between atoms: C_9  and  N_11 
REMARK    6  A    between atoms: N_11  and  C_12 
REMARK    7  A    between atoms: C_19  and  C_20 
ROOT
HETATM    1  N   UNL     1       4.655  -0.650   0.516  1.00  0.00    -0.306 N 
HETATM    2  C   UNL     1       5.602  -1.633   0.420  1.00  0.00     0.163 A 
HETATM    3  N   UNL     1       6.796  -1.086   0.368  1.00  0.00    -0.278 N 
ATOM      4  HN  UNL     1       7.685  -1.584   0.321  1.00  0.00     0.189 HD
HETATM    5  N   UNL     1       6.630   0.285   0.389  1.00  0.00    -0.286 N 
ATOM      6  HN  UNL     1       7.376   0.979   0.349  1.00  0.00     0.188 HD
HETATM    7  C   UNL     1       5.338   0.540   0.470  1.00  0.00     0.104 A 
ENDROOT
BRANCH   2   8
HETATM    8  S   UNL     1       5.249  -3.321   0.517  1.00  0.00    -0.083 SA
BRANCH   8   9
HETATM    9  C   UNL     1       6.494  -3.904   1.708  1.00  0.00     0.185 C 
BRANCH   9  10
HETATM   10  C   UNL     1       6.262  -3.321   3.093  1.00  0.00     0.227 C 
HETATM   11  O   UNL     1       5.771  -3.974   4.013  1.00  0.00    -0.273 OA
HETATM   12  N   UNL     1       6.683  -2.012   3.213  1.00  0.00    -0.356 N 
HETATM   13  H   UNL     1       7.114  -1.573   2.399  1.00  0.00     0.162 HD
BRANCH  12  14
HETATM   14  C   UNL     1       6.685  -1.260   4.422  1.00  0.00     0.084 A 
HETATM   15  C   UNL     1       5.752  -0.109   4.676  1.00  0.00     0.027 A 
HETATM   16  C   UNL     1       7.185   0.160   4.332  1.00  0.00     0.027 A 
ENDBRANCH  12  14
ENDBRANCH   9  10
ENDBRANCH   8   9
ENDBRANCH   2   8
BRANCH   1  17
HETATM   17  C   UNL     1       3.236  -0.811   0.725  1.00  0.00     0.235 C 
BRANCH  17  18
HETATM   18  C   UNL     1       2.482  -0.774  -0.576  1.00  0.00     0.233 C 
HETATM   19  N   UNL     1       2.248  -1.982  -1.171  1.00  0.00    -0.369 N 
HETATM   20  H   UNL     1       1.805  -1.964  -2.083  1.00  0.00     0.159 HD
HETATM   21  H   UNL     1       2.745  -2.825  -0.909  1.00  0.00     0.159 HD
HETATM   22  O   UNL     1       2.094   0.269  -1.093  1.00  0.00    -0.272 OA
ENDBRANCH  17  18
ENDBRANCH   1  17
BRANCH   7  23
HETATM   23  C   UNL     1       4.712   1.932   0.514  1.00  0.00     0.055 A 
HETATM   24  C   UNL     1       5.385   3.054  -0.247  1.00  0.00     0.013 A 
HETATM   25  C   UNL     1       5.427   3.050   1.242  1.00  0.00     0.013 A 
ENDBRANCH   7  23
TORSDOF 7
