REMARK  7 active torsions:
REMARK  status: ('A' for Active; 'I' for Inactive)
REMARK    1  A    between atoms: N_2  and  C_14 
REMARK    2  A    between atoms: C_6  and  N_8 
REMARK    3  A    between atoms: N_8  and  C_15 
REMARK    4  A    between atoms: N_13  and  C_24 
REMARK    5  A    between atoms: C_14  and  C_18 
REMARK    6  A    between atoms: C_15  and  C_16 
REMARK    7  A    between atoms: C_18  and  O_22 
ROOT
HETATM    1  C   UNL     1       0.249  -0.381  -0.492  1.00  0.00     0.117 A 
HETATM    2  N   UNL     1       1.241   1.556  -0.216  1.00  0.00    -0.324 N 
HETATM    3  C   UNL     1       0.008   0.947  -0.165  1.00  0.00     0.140 A 
HETATM    4  N   UNL     1       1.581  -0.549  -0.837  1.00  0.00    -0.346 N 
ATOM      5  HN  UNL     1       2.041  -1.412  -1.127  1.00  0.00     0.167 HD
HETATM    6  C   UNL     1      -0.847  -1.288  -0.404  1.00  0.00     0.114 C 
HETATM    7  C   UNL     1       2.125   0.641  -0.711  1.00  0.00     0.185 A 
HETATM    8  N   UNL     1      -1.164   1.509   0.163  1.00  0.00    -0.336 N 
ATOM      9  HN  UNL     1      -1.291   2.488   0.422  1.00  0.00     0.168 HD
HETATM   10  N   UNL     1      -2.069  -0.733  -0.164  1.00  0.00    -0.341 N 
ATOM     11  HN  UNL     1      -2.910  -1.310  -0.184  1.00  0.00     0.167 HD
HETATM   12  C   UNL     1      -2.155   0.589   0.101  1.00  0.00     0.183 C 
ENDROOT
BRANCH   6  13
HETATM   13  N   UNL     1      -0.691  -2.679  -0.539  1.00  0.00    -0.269 NA
HETATM   14  C   UNL     1      -0.236  -3.057  -1.876  1.00  0.00     0.118 C 
BRANCH  13  15
HETATM   15  C   UNL     1      -1.759  -3.550  -0.009  1.00  0.00     0.132 C 
BRANCH  15  16
HETATM   16  C   UNL     1      -1.836  -3.706   1.534  1.00  0.00     0.236 C 
HETATM   17  N   UNL     1      -2.344  -2.520   2.253  1.00  0.00     0.093 N 
HETATM   18  C   UNL     1      -1.604  -2.403   3.504  1.00  0.00     0.273 C 
HETATM   19  C   UNL     1      -0.213  -2.852   3.089  1.00  0.00     0.032 C 
HETATM   20  C   UNL     1      -0.507  -4.056   2.212  1.00  0.00     0.038 C 
BRANCH  17  21
HETATM   21  C   UNL     1      -3.800  -2.509   2.346  1.00  0.00     0.268 C 
HETATM   22  C   UNL     1      -4.367  -1.312   3.097  1.00  0.00     0.037 C 
ENDBRANCH  17  21
ENDBRANCH  15  16
ENDBRANCH  13  15
ENDBRANCH   6  13
BRANCH   2  23
HETATM   23  C   UNL     1       1.556   2.924   0.158  1.00  0.00     0.169 C 
BRANCH  23  24
HETATM   24  C   UNL     1       1.809   3.149   1.678  1.00  0.00     0.078 C 
HETATM   25  C   UNL     1       2.226   4.612   1.941  1.00  0.00     0.066 C 
HETATM   26  C   UNL     1       3.676   4.885   1.572  1.00  0.00     0.170 C 
HETATM   27  O   UNL     1       4.543   3.997   2.268  1.00  0.00    -0.391 OA
HETATM   28  C   UNL     1       4.302   2.630   1.949  1.00  0.00     0.170 C 
HETATM   29  C   UNL     1       2.874   2.223   2.299  1.00  0.00     0.066 C 
BRANCH  24  30
HETATM   30  O   UNL     1       0.584   2.968   2.412  1.00  0.00    -0.388 OA
HETATM   31  H   UNL     1      -0.077   2.499   1.867  1.00  0.00     0.210 HD
ENDBRANCH  24  30
ENDBRANCH  23  24
ENDBRANCH   2  23
TORSDOF 7
