REMARK  3 active torsions:
REMARK  status: ('A' for Active; 'I' for Inactive)
REMARK    1  A    between atoms: C_4  and  N_5 
REMARK       I    between atoms: N_5  and  C_6 
REMARK       I    between atoms: C_6  and  N_8 
REMARK    2  A    between atoms: N_8  and  C_9 
REMARK    3  A    between atoms: C_9  and  C_10 
REMARK       I    between atoms: C_10  and  N_12 
ROOT
HETATM    1  N   UNL     1       5.810   1.832   0.355  1.00  0.00    -0.302 N 
HETATM    2  C   UNL     1       5.778   3.208   0.345  1.00  0.00     0.321 C 
HETATM    3  O   UNL     1       4.780   3.913   0.447  1.00  0.00    -0.247 OA
HETATM    4  N   UNL     1       7.033   3.774   0.265  1.00  0.00    -0.334 N 
HETATM    5  H   UNL     1       6.687   1.402   0.609  1.00  0.00     0.171 HD
HETATM    6  H   UNL     1       7.759   3.283  -0.242  1.00  0.00     0.164 HD
ENDROOT
BRANCH   1   7
HETATM    7  C   UNL     1       4.668   1.046   0.407  1.00  0.00     0.096 A 
HETATM    8  C   UNL     1       4.545  -0.276   0.779  1.00  0.00     0.063 A 
HETATM    9  C   UNL     1       3.167  -0.690   0.711  1.00  0.00     0.014 A 
HETATM   10  C   UNL     1       2.619  -2.017   1.097  1.00  0.00     0.068 C 
HETATM   11  N   UNL     1       2.306   0.223   0.262  1.00  0.00    -0.329 N 
HETATM   12  S   UNL     1       3.131   1.616  -0.063  1.00  0.00     0.004 SA
ATOM     13  HN  UNL     1       1.303   0.084   0.139  1.00  0.00     0.174 HD
ENDBRANCH   1   7
BRANCH   4  14
HETATM   14  C   UNL     1       7.069   5.225   0.195  1.00  0.00     0.227 C 
BRANCH  14  15
HETATM   15  C   UNL     1       8.446   5.835  -0.050  1.00  0.00     0.237 C 
HETATM   16  O   UNL     1       9.413   5.143  -0.369  1.00  0.00    -0.272 OA
HETATM   17  N   UNL     1       8.490   7.218  -0.002  1.00  0.00    -0.351 N 
HETATM   18  C   UNL     1       9.660   7.957  -0.419  1.00  0.00     0.126 C 
HETATM   19  C   UNL     1       7.568   8.076   0.718  1.00  0.00     0.126 C 
HETATM   20  C   UNL     1       9.284   9.430  -0.298  1.00  0.00     0.021 C 
HETATM   21  C   UNL     1       7.821   9.455   0.140  1.00  0.00     0.021 C 
ENDBRANCH  14  15
ENDBRANCH   4  14
TORSDOF 3
