REMARK  4 active torsions:
REMARK  status: ('A' for Active; 'I' for Inactive)
REMARK    1  A    between atoms: C_2  and  O_3 
REMARK    2  A    between atoms: O_3  and  C_4 
REMARK    3  A    between atoms: C_10  and  N_11 
REMARK       I    between atoms: N_11  and  C_12 
REMARK       I    between atoms: C_12  and  N_14 
REMARK    4  A    between atoms: N_14  and  C_15 
ROOT
HETATM    1  N   UNL     1       5.162  -1.572   0.046  1.00  0.00    -0.305 N 
HETATM    2  C   UNL     1       3.827  -1.491  -0.295  1.00  0.00     0.321 C 
HETATM    3  O   UNL     1       3.272  -0.473  -0.688  1.00  0.00    -0.247 OA
HETATM    4  N   UNL     1       3.194  -2.702  -0.203  1.00  0.00    -0.336 N 
HETATM    5  H   UNL     1       5.647  -2.382  -0.322  1.00  0.00     0.171 HD
HETATM    6  H   UNL     1       3.495  -3.292   0.561  1.00  0.00     0.164 HD
ENDROOT
BRANCH   1   7
HETATM    7  C   UNL     1       5.952  -0.411   0.234  1.00  0.00     0.087 A 
HETATM    8  C   UNL     1       7.266  -0.307  -0.232  1.00  0.00     0.169 A 
HETATM    9  N   UNL     1       8.066   0.761   0.020  1.00  0.00    -0.345 N 
HETATM   10  C   UNL     1       7.530   1.788   0.707  1.00  0.00     0.090 A 
ATOM     11  HN  UNL     1       9.035   0.784  -0.298  1.00  0.00     0.167 HD
HETATM   12  C   UNL     1       6.230   1.806   1.166  1.00  0.00     0.019 A 
HETATM   13  C   UNL     1       5.435   0.682   0.932  1.00  0.00     0.035 A 
BRANCH   8  14
HETATM   14  O   UNL     1       7.772  -1.297  -1.065  1.00  0.00    -0.334 OA
BRANCH  14  15
HETATM   15  C   UNL     1       8.706  -0.710  -1.994  1.00  0.00     0.173 C 
HETATM   16  C   UNL     1       9.247  -1.750  -2.956  1.00  0.00     0.034 C 
ENDBRANCH  14  15
ENDBRANCH   8  14
ENDBRANCH   1   7
BRANCH   4  17
HETATM   17  C   UNL     1       1.857  -2.947  -0.755  1.00  0.00     0.121 C 
HETATM   18  C   UNL     1       0.735  -2.012  -0.279  1.00  0.00     0.057 C 
HETATM   19  C   UNL     1       0.069  -1.482  -1.558  1.00  0.00     0.275 C 
HETATM   20  N   UNL     1       0.416  -2.483  -2.564  1.00  0.00     0.095 N 
HETATM   21  C   UNL     1       0.280  -2.029  -3.949  1.00  0.00     0.273 C 
HETATM   22  C   UNL     1       1.825  -2.798  -2.281  1.00  0.00     0.245 C 
HETATM   23  C   UNL     1       0.730  -3.144  -4.907  1.00  0.00     0.030 C 
HETATM   24  C   UNL     1       2.114  -3.711  -4.562  1.00  0.00     0.004 C 
HETATM   25  C   UNL     1       2.230  -4.034  -3.071  1.00  0.00     0.038 C 
ENDBRANCH   4  17
TORSDOF 4
