REMARK  8 active torsions:
REMARK  status: ('A' for Active; 'I' for Inactive)
REMARK    1  A    between atoms: C_2  and  C_3 
REMARK    2  A    between atoms: C_3  and  C_4 
REMARK    3  A    between atoms: C_3  and  C_6 
REMARK    4  A    between atoms: C_3  and  C_17 
REMARK    5  A    between atoms: C_6  and  N_7 
REMARK       I    between atoms: N_7  and  C_8 
REMARK    6  A    between atoms: C_8  and  C_10 
REMARK    7  A    between atoms: C_10  and  N_11 
REMARK    8  A    between atoms: C_17  and  O_19 
ROOT
HETATM    1  N   UNL     1       2.868  -0.016  -2.979  1.00  0.00    -0.358 N 
HETATM    2  C   UNL     1       3.620  -0.206  -4.122  1.00  0.00     0.237 C 
HETATM    3  O   UNL     1       3.958  -1.319  -4.516  1.00  0.00    -0.272 OA
HETATM    4  H   UNL     1       2.499   0.915  -2.804  1.00  0.00     0.162 HD
ENDROOT
BRANCH   1   5
HETATM    5  C   UNL     1       2.396  -1.118  -2.163  1.00  0.00     0.143 C 
BRANCH   5   6
HETATM    6  C   UNL     1       2.981  -1.127  -0.726  1.00  0.00     0.060 C 
BRANCH   6   7
HETATM    7  C   UNL     1       2.467   0.146   0.021  1.00  0.00     0.018 C 
HETATM    8  C   UNL     1       2.865   0.275   1.490  1.00  0.00     0.006 C 
ENDBRANCH   6   7
BRANCH   6   9
HETATM    9  C   UNL     1       2.561  -2.430   0.019  1.00  0.00     0.018 C 
HETATM   10  C   UNL     1       1.060  -2.637   0.194  1.00  0.00     0.006 C 
ENDBRANCH   6   9
BRANCH   6  11
HETATM   11  C   UNL     1       4.517  -1.076  -0.832  1.00  0.00     0.150 C 
HETATM   12  O   UNL     1       5.204  -0.136  -0.453  1.00  0.00    -0.649 OA
BRANCH  11  13
HETATM   13  O   UNL     1       5.099  -2.152  -1.405  1.00  0.00    -0.776 OA
HETATM   14  H   UNL     1       4.502  -2.794  -1.831  1.00  0.00     0.167 HD
ENDBRANCH  11  13
ENDBRANCH   6  11
ENDBRANCH   5   6
ENDBRANCH   1   5
BRANCH   2  15
HETATM   15  C   UNL     1       4.013   1.065  -4.836  1.00  0.00     0.250 C 
BRANCH  15  16
HETATM   16  N   UNL     1       3.003   1.450  -5.800  1.00  0.00    -0.295 N 
HETATM   17  C   UNL     1       2.973   1.135  -7.128  1.00  0.00     0.112 A 
HETATM   18  C   UNL     1       1.879   1.786  -7.649  1.00  0.00     0.037 A 
HETATM   19  C   UNL     1       1.313   2.464  -6.555  1.00  0.00     0.108 A 
HETATM   20  N   UNL     1       1.993   2.259  -5.421  1.00  0.00    -0.310 N 
ATOM     21  HN  UNL     1       1.794   2.627  -4.491  1.00  0.00     0.186 HD
ENDBRANCH  15  16
ENDBRANCH   2  15
TORSDOF 8
