REMARK  4 active torsions:
REMARK  status: ('A' for Active; 'I' for Inactive)
REMARK    1  A    between atoms: O_1  and  C_2 
REMARK    2  A    between atoms: C_2  and  C_3 
REMARK    3  A    between atoms: C_2  and  C_16 
REMARK    4  A    between atoms: C_3  and  N_4 
ROOT
HETATM    1  N   UNL     1       2.570   0.131   2.482  1.00  0.00    -0.338 N 
HETATM    2  C   UNL     1       1.494  -0.080   3.302  1.00  0.00     0.184 A 
HETATM    3  N   UNL     1       1.394   0.850   4.223  1.00  0.00    -0.350 N 
ATOM      4  HN  UNL     1       0.677   0.932   4.944  1.00  0.00     0.166 HD
HETATM    5  C   UNL     1       2.457   1.688   4.011  1.00  0.00     0.063 A 
HETATM    6  C   UNL     1       2.824   2.844   4.715  1.00  0.00     0.077 A 
HETATM    7  C   UNL     1       3.959   3.535   4.295  1.00  0.00     0.157 A 
HETATM    8  F   UNL     1       4.328   4.645   4.953  1.00  0.00    -0.203 F 
HETATM    9  C   UNL     1       4.711   3.094   3.209  1.00  0.00     0.157 A 
HETATM   10  F   UNL     1       5.797   3.783   2.831  1.00  0.00    -0.203 F 
HETATM   11  C   UNL     1       4.364   1.946   2.491  1.00  0.00     0.077 A 
HETATM   12  C   UNL     1       3.221   1.260   2.921  1.00  0.00     0.065 A 
ENDROOT
BRANCH   1  13
HETATM   13  C   UNL     1       2.902  -0.693   1.330  1.00  0.00     0.166 C 
BRANCH  13  14
HETATM   14  C   UNL     1       2.244  -0.166   0.046  1.00  0.00     0.169 C 
BRANCH  14  15
HETATM   15  O   UNL     1       0.819  -0.169   0.187  1.00  0.00    -0.389 OA
HETATM   16  H   UNL     1       0.568   0.650   0.649  1.00  0.00     0.210 HD
ENDBRANCH  14  15
BRANCH  14  17
HETATM   17  C   UNL     1       2.610  -0.997  -1.170  1.00  0.00    -0.028 A 
HETATM   18  C   UNL     1       3.783  -0.717  -1.890  1.00  0.00     0.010 A 
HETATM   19  C   UNL     1       4.097  -1.433  -3.049  1.00  0.00     0.001 A 
HETATM   20  C   UNL     1       3.250  -2.442  -3.501  1.00  0.00     0.000 A 
HETATM   21  C   UNL     1       2.097  -2.750  -2.785  1.00  0.00     0.001 A 
HETATM   22  C   UNL     1       1.784  -2.039  -1.625  1.00  0.00     0.010 A 
ENDBRANCH  14  17
ENDBRANCH  13  14
ENDBRANCH   1  13
TORSDOF 4
