REMARK  4 active torsions:
REMARK  status: ('A' for Active; 'I' for Inactive)
REMARK    1  A    between atoms: O_2  and  C_3 
REMARK    2  A    between atoms: C_6  and  N_7 
REMARK       I    between atoms: N_7  and  C_8 
REMARK       I    between atoms: C_8  and  N_10 
REMARK    3  A    between atoms: N_10  and  C_11 
REMARK    4  A    between atoms: C_11  and  C_13 
ROOT
HETATM    1  N   UNL     1       4.642   3.371  -4.026  1.00  0.00    -0.308 N 
HETATM    2  C   UNL     1       5.190   2.822  -5.164  1.00  0.00     0.321 C 
HETATM    3  O   UNL     1       5.602   1.675  -5.280  1.00  0.00    -0.247 OA
HETATM    4  N   UNL     1       5.315   3.737  -6.185  1.00  0.00    -0.336 N 
HETATM    5  H   UNL     1       4.599   4.379  -3.992  1.00  0.00     0.170 HD
HETATM    6  H   UNL     1       4.663   4.510  -6.226  1.00  0.00     0.164 HD
ENDROOT
BRANCH   1   7
HETATM    7  C   UNL     1       4.417   2.662  -2.821  1.00  0.00     0.051 A 
HETATM    8  C   UNL     1       4.409   1.270  -2.742  1.00  0.00     0.035 A 
HETATM    9  C   UNL     1       4.236   0.639  -1.514  1.00  0.00     0.058 A 
HETATM   10  C   UNL     1       4.034   1.424  -0.395  1.00  0.00     0.141 A 
HETATM   11  N   UNL     1       4.003   2.774  -0.420  1.00  0.00    -0.345 N 
HETATM   12  C   UNL     1       4.196   3.356  -1.630  1.00  0.00     0.119 A 
ATOM     13  HN  UNL     1       3.843   3.325   0.423  1.00  0.00     0.167 HD
BRANCH  10  14
HETATM   14  O   UNL     1       3.887   0.746   0.798  1.00  0.00    -0.341 OA
HETATM   15  C   UNL     1       3.232   1.528   1.788  1.00  0.00     0.211 C 
ENDBRANCH  10  14
ENDBRANCH   1   7
BRANCH   4  16
HETATM   16  C   UNL     1       5.875   3.298  -7.466  1.00  0.00     0.111 C 
HETATM   17  C   UNL     1       4.776   2.693  -8.340  1.00  0.00     0.035 C 
BRANCH  16  18
HETATM   18  C   UNL     1       6.611   4.430  -8.197  1.00  0.00     0.143 C 
HETATM   19  C   UNL     1       7.781   5.029  -7.428  1.00  0.00     0.036 C 
HETATM   20  C   UNL     1       7.799   6.485  -7.851  1.00  0.00     0.029 C 
HETATM   21  C   UNL     1       6.617   6.631  -8.788  1.00  0.00     0.168 C 
HETATM   22  O   UNL     1       5.742   5.540  -8.482  1.00  0.00    -0.384 OA
ENDBRANCH  16  18
ENDBRANCH   4  16
TORSDOF 4
