REMARK  5 active torsions:
REMARK  status: ('A' for Active; 'I' for Inactive)
REMARK    1  A    between atoms: C_2  and  C_3 
REMARK    2  A    between atoms: C_2  and  N_15 
REMARK       I    between atoms: C_3  and  N_5 
REMARK    3  A    between atoms: N_5  and  C_6 
REMARK    4  A    between atoms: C_6  and  C_7 
REMARK    5  A    between atoms: N_10  and  C_12 
ROOT
HETATM    1  C   UNL     1       3.275   1.000   1.072  1.00  0.00     0.242 C 
HETATM    2  O   UNL     1       4.113   0.694   1.918  1.00  0.00    -0.271 OA
HETATM    3  N   UNL     1       2.789   2.289   0.956  1.00  0.00    -0.359 N 
HETATM    4  H   UNL     1       2.270   2.521   0.109  1.00  0.00     0.162 HD
ENDROOT
BRANCH   1   5
HETATM    5  C   UNL     1       2.653  -0.022   0.125  1.00  0.00     0.196 C 
HETATM    6  C   UNL     1       3.178  -1.431   0.409  1.00  0.00     0.044 C 
BRANCH   5   7
HETATM    7  N   UNL     1       2.838   0.389  -1.257  1.00  0.00    -0.273 N 
HETATM    8  C   UNL     1       3.809   0.033  -2.142  1.00  0.00     0.202 A 
HETATM    9  N   UNL     1       3.585   0.613  -3.298  1.00  0.00    -0.346 N 
HETATM   10  C   UNL     1       2.455   1.341  -3.068  1.00  0.00     0.198 A 
ATOM     11  HN  UNL     1       4.125   0.537  -4.160  1.00  0.00     0.167 HD
HETATM   12  N   UNL     1       1.970   1.259  -1.825  1.00  0.00    -0.292 N 
ATOM     13  HN  UNL     1       1.162   1.727  -1.414  1.00  0.00     0.188 HD
ENDBRANCH   5   7
ENDBRANCH   1   5
BRANCH   3  14
HETATM   14  C   UNL     1       3.345   3.355   1.767  1.00  0.00     0.129 C 
BRANCH  14  15
HETATM   15  C   UNL     1       2.715   4.709   1.474  1.00  0.00     0.033 C 
HETATM   16  C   UNL     1       2.969   5.222   0.060  1.00  0.00     0.038 C 
HETATM   17  C   UNL     1       3.129   6.733   0.208  1.00  0.00     0.273 C 
HETATM   18  N   UNL     1       2.939   7.061   1.628  1.00  0.00     0.093 N 
HETATM   19  C   UNL     1       3.287   5.822   2.347  1.00  0.00     0.279 C 
BRANCH  18  20
HETATM   20  C   UNL     1       1.574   7.527   1.943  1.00  0.00     0.223 A 
HETATM   21  C   UNL     1       1.070   8.841   1.414  1.00  0.00     0.038 A 
HETATM   22  C   UNL     1       1.435   8.714   2.864  1.00  0.00     0.038 A 
ENDBRANCH  18  20
ENDBRANCH  14  15
ENDBRANCH   3  14
TORSDOF 5
