REMARK  2 active torsions:
REMARK  status: ('A' for Active; 'I' for Inactive)
REMARK    1  A    between atoms: C_8  and  N_9 
REMARK       I    between atoms: N_9  and  C_10 
REMARK       I    between atoms: C_10  and  N_12 
REMARK    2  A    between atoms: N_12  and  C_13 
ROOT
HETATM    1  N   UNL     1       5.161   2.820  -0.237  1.00  0.00    -0.295 N 
HETATM    2  C   UNL     1       6.492   2.479  -0.160  1.00  0.00     0.322 C 
HETATM    3  O   UNL     1       6.846   1.308  -0.278  1.00  0.00    -0.247 OA
HETATM    4  N   UNL     1       7.347   3.502   0.125  1.00  0.00    -0.337 N 
HETATM    5  H   UNL     1       4.534   2.032  -0.286  1.00  0.00     0.172 HD
HETATM    6  H   UNL     1       6.899   4.413   0.046  1.00  0.00     0.164 HD
ENDROOT
BRANCH   1   7
HETATM    7  C   UNL     1       4.627   4.115  -0.208  1.00  0.00     0.109 A 
HETATM    8  N   UNL     1       5.476   5.158  -0.352  1.00  0.00    -0.346 N 
HETATM    9  C   UNL     1       5.003   6.416  -0.260  1.00  0.00     0.007 A 
ATOM     10  HN  UNL     1       6.467   4.993  -0.529  1.00  0.00     0.167 HD
HETATM   11  C   UNL     1       3.673   6.678   0.011  1.00  0.00     0.031 A 
HETATM   12  C   UNL     1       6.017   7.503  -0.428  1.00  0.00     0.068 C 
HETATM   13  C   UNL     1       2.788   5.605   0.154  1.00  0.00    -0.057 A 
HETATM   14  C   UNL     1       1.352   5.847   0.512  1.00  0.00     0.048 C 
HETATM   15  C   UNL     1       3.272   4.297   0.012  1.00  0.00     0.055 A 
ENDBRANCH   1   7
BRANCH   4  16
HETATM   16  C   UNL     1       8.800   3.440   0.179  1.00  0.00     0.103 C 
HETATM   17  C   UNL     1       9.423   2.681   1.371  1.00  0.00     0.041 C 
HETATM   18  C   UNL     1      10.433   1.594   1.705  1.00  0.00     0.035 C 
HETATM   19  C   UNL     1      10.552   3.769   1.248  1.00  0.00     0.137 C 
HETATM   20  C   UNL     1      11.280   2.275   2.817  1.00  0.00     0.168 C 
HETATM   21  O   UNL     1      11.301   3.683   2.466  1.00  0.00    -0.385 OA
HETATM   22  C   UNL     1       9.441   4.764   0.866  1.00  0.00    -0.000 C 
HETATM   23  C   UNL     1       9.820   5.798  -0.197  1.00  0.00     0.019 C 
HETATM   24  C   UNL     1       8.759   5.439   2.064  1.00  0.00     0.019 C 
ENDBRANCH   4  16
TORSDOF 2
