REMARK  7 active torsions:
REMARK  status: ('A' for Active; 'I' for Inactive)
REMARK    1  A    between atoms: N_6  and  C_7 
REMARK    2  A    between atoms: C_7  and  C_8 
REMARK    3  A    between atoms: C_8  and  O_9 
REMARK    4  A    between atoms: C_8  and  C_10 
REMARK    5  A    between atoms: C_10  and  O_11 
REMARK    6  A    between atoms: O_11  and  C_12 
REMARK    7  A    between atoms: C_16  and  C_18 
ROOT
HETATM    1  C   UNL     1       7.363  -1.385   0.011  1.00  0.00     0.161 C 
ENDROOT
BRANCH   1   2
HETATM    2  C   UNL     1       6.748   0.026   0.061  1.00  0.00     0.166 C 
BRANCH   2   3
HETATM    3  N   UNL     1       5.288   0.013   0.097  1.00  0.00    -0.307 N 
HETATM    4  C   UNL     1       4.565   0.024  -1.065  1.00  0.00     0.186 A 
HETATM    5  N   UNL     1       3.278   0.048  -1.139  1.00  0.00    -0.355 N 
HETATM    6  C   UNL     1       2.579   0.046   0.043  1.00  0.00     0.017 A 
ATOM      7  HN  UNL     1       2.798   0.068  -2.039  1.00  0.00     0.166 HD
HETATM    8  C   UNL     1       1.082   0.121  -0.118  1.00  0.00     0.069 C 
HETATM    9  C   UNL     1       3.157  -0.015   1.258  1.00  0.00     0.028 A 
HETATM   10  C   UNL     1       4.643  -0.063   1.311  1.00  0.00     0.256 A 
HETATM   11  C   UNL     1       2.405  -0.031   2.553  1.00  0.00     0.056 C 
HETATM   12  O   UNL     1       5.241  -0.149   2.382  1.00  0.00    -0.267 OA
ENDBRANCH   2   3
ENDBRANCH   1   2
BRANCH   1  13
HETATM   13  O   UNL     1       6.959  -2.020  -1.213  1.00  0.00    -0.392 OA
HETATM   14  H   UNL     1       7.544  -1.726  -1.931  1.00  0.00     0.210 HD
ENDBRANCH   1  13
BRANCH   1  15
HETATM   15  C   UNL     1       8.901  -1.290   0.101  1.00  0.00     0.209 C 
BRANCH  15  16
HETATM   16  O   UNL     1       9.471  -2.603   0.093  1.00  0.00    -0.349 OA
BRANCH  16  17
HETATM   17  C   UNL     1      10.838  -2.690   0.111  1.00  0.00     0.069 A 
HETATM   18  C   UNL     1      11.729  -1.620   0.207  1.00  0.00     0.037 A 
HETATM   19  C   UNL     1      13.108  -1.848   0.213  1.00  0.00     0.004 A 
HETATM   20  C   UNL     1      13.608  -3.145   0.119  1.00  0.00     0.016 A 
HETATM   21  C   UNL     1      12.732  -4.234   0.020  1.00  0.00     0.050 A 
HETATM   22  C   UNL     1      11.346  -3.991   0.023  1.00  0.00     0.052 A 
BRANCH  21  23
HETATM   23  C   UNL     1      13.253  -5.645  -0.097  1.00  0.00     0.417 C 
HETATM   24  F   UNL     1      14.614  -5.721  -0.128  1.00  0.00    -0.166 F 
HETATM   25  F   UNL     1      12.862  -6.437   0.939  1.00  0.00    -0.166 F 
HETATM   26  F   UNL     1      12.824  -6.268  -1.230  1.00  0.00    -0.166 F 
ENDBRANCH  21  23
ENDBRANCH  16  17
ENDBRANCH  15  16
ENDBRANCH   1  15
TORSDOF 7
