REMARK  3 active torsions:
REMARK  status: ('A' for Active; 'I' for Inactive)
REMARK    1  A    between atoms: C_4  and  N_5 
REMARK       I    between atoms: N_5  and  C_6 
REMARK       I    between atoms: C_6  and  N_8 
REMARK    2  A    between atoms: N_8  and  C_9 
REMARK    3  A    between atoms: C_12  and  C_15 
ROOT
HETATM    1  N   UNL     1       7.034   2.096  -1.880  1.00  0.00    -0.293 N 
HETATM    2  C   UNL     1       7.329   3.390  -1.543  1.00  0.00     0.322 C 
HETATM    3  O   UNL     1       8.095   4.047  -2.244  1.00  0.00    -0.247 OA
HETATM    4  N   UNL     1       6.790   3.848  -0.381  1.00  0.00    -0.338 N 
HETATM    5  H   UNL     1       7.513   1.763  -2.701  1.00  0.00     0.172 HD
HETATM    6  H   UNL     1       6.060   3.271   0.025  1.00  0.00     0.164 HD
ENDROOT
BRANCH   4   7
HETATM    7  C   UNL     1       7.099   5.109   0.253  1.00  0.00     0.086 C 
HETATM    8  C   UNL     1       6.470   6.284  -0.496  1.00  0.00     0.026 C 
HETATM    9  C   UNL     1       6.749   7.604   0.220  1.00  0.00     0.015 C 
HETATM   10  C   UNL     1       6.297   7.602   1.688  1.00  0.00     0.093 C 
HETATM   11  C   UNL     1       6.880   6.389   2.431  1.00  0.00     0.015 C 
HETATM   12  C   UNL     1       6.615   5.071   1.708  1.00  0.00     0.026 C 
BRANCH  10  13
HETATM   13  C   UNL     1       4.775   7.725   1.849  1.00  0.00     0.391 C 
HETATM   14  F   UNL     1       4.137   7.865   0.668  1.00  0.00    -0.171 F 
HETATM   15  F   UNL     1       4.228   6.665   2.481  1.00  0.00    -0.171 F 
HETATM   16  F   UNL     1       4.478   8.820   2.591  1.00  0.00    -0.171 F 
ENDBRANCH  10  13
ENDBRANCH   4   7
BRANCH   1  17
HETATM   17  C   UNL     1       6.308   1.193  -1.128  1.00  0.00     0.132 A 
HETATM   18  C   UNL     1       6.265  -0.203  -1.355  1.00  0.00     0.084 A 
HETATM   19  C   UNL     1       5.534  -0.697  -0.302  1.00  0.00     0.076 A 
HETATM   20  C   UNL     1       5.165  -2.039   0.177  1.00  0.00     0.079 C 
HETATM   21  O   UNL     1       5.098   0.334   0.463  1.00  0.00    -0.241 OA
HETATM   22  N   UNL     1       5.576   1.514  -0.053  1.00  0.00    -0.245 N 
ATOM     23  HN  UNL     1       5.407   2.452   0.311  1.00  0.00     0.196 HD
ENDBRANCH   1  17
TORSDOF 3
