REMARK  3 active torsions:
REMARK  status: ('A' for Active; 'I' for Inactive)
REMARK    1  A    between atoms: O_2  and  C_3 
REMARK    2  A    between atoms: C_8  and  N_9 
REMARK    3  A    between atoms: N_9  and  C_10 
ROOT
HETATM    1  C   UNL     1       0.184  -2.919   2.614  1.00  0.00     0.044 A 
HETATM    2  C   UNL     1      -0.870  -2.466   3.415  1.00  0.00     0.033 A 
HETATM    3  C   UNL     1      -1.459  -3.300   4.368  1.00  0.00     0.043 A 
HETATM    4  C   UNL     1      -0.992  -4.599   4.486  1.00  0.00     0.113 A 
HETATM    5  C   UNL     1      -1.569  -5.505   5.443  1.00  0.00     0.117 C 
HETATM    6  N   UNL     1      -2.065  -6.195   6.233  1.00  0.00    -0.190 NA
HETATM    7  N   UNL     1       0.010  -5.096   3.724  1.00  0.00    -0.355 N 
ATOM      8  HN  UNL     1       0.339  -6.055   3.831  1.00  0.00     0.166 HD
HETATM    9  C   UNL     1       0.556  -4.251   2.807  1.00  0.00     0.118 A 
ENDROOT
BRANCH   1  10
HETATM   10  N   UNL     1       0.704  -2.077   1.630  1.00  0.00    -0.382 N 
HETATM   11  H   UNL     1       0.403  -1.115   1.748  1.00  0.00     0.160 HD
BRANCH  10  12
HETATM   12  C   UNL     1       2.106  -2.208   1.188  1.00  0.00     0.110 C 
HETATM   13  C   UNL     1       2.801  -0.827   0.964  1.00  0.00     0.143 C 
HETATM   14  C   UNL     1       4.290  -1.099   0.678  1.00  0.00     0.034 C 
HETATM   15  C   UNL     1       4.458  -1.966  -0.576  1.00  0.00     0.003 C 
HETATM   16  C   UNL     1       3.655  -3.264  -0.495  1.00  0.00     0.002 C 
HETATM   17  C   UNL     1       2.194  -3.037  -0.098  1.00  0.00     0.028 C 
BRANCH  13  18
HETATM   18  O   UNL     1       2.351  -0.080  -0.178  1.00  0.00    -0.389 OA
HETATM   19  C   UNL     1       1.040   0.445  -0.121  1.00  0.00     0.202 C 
ENDBRANCH  13  18
ENDBRANCH  10  12
ENDBRANCH   1  10
TORSDOF 3
