REMARK  3 active torsions:
REMARK  status: ('A' for Active; 'I' for Inactive)
REMARK    1  A    between atoms: O_2  and  C_3 
REMARK    2  A    between atoms: C_6  and  N_7 
REMARK    3  A    between atoms: N_7  and  C_8 
ROOT
HETATM    1  C   UNL     1       3.152   1.111   0.464  1.00  0.00     0.141 A 
HETATM    2  C   UNL     1       2.726   2.417   0.528  1.00  0.00     0.058 A 
HETATM    3  C   UNL     1       3.265   3.225   1.524  1.00  0.00     0.035 A 
HETATM    4  C   UNL     1       4.201   2.732   2.448  1.00  0.00     0.051 A 
HETATM    5  C   UNL     1       4.589   1.396   2.271  1.00  0.00     0.034 A 
HETATM    6  C   UNL     1       5.692   0.743   3.047  1.00  0.00     0.070 C 
HETATM    7  N   UNL     1       4.062   0.586   1.308  1.00  0.00    -0.339 N 
ATOM      8  HN  UNL     1       4.349  -0.390   1.229  1.00  0.00     0.168 HD
ENDROOT
BRANCH   4   9
HETATM    9  N   UNL     1       4.605   3.624   3.424  1.00  0.00    -0.382 N 
HETATM   10  H   UNL     1       4.914   4.517   3.047  1.00  0.00     0.160 HD
BRANCH   9  11
HETATM   11  C   UNL     1       5.039   3.339   4.785  1.00  0.00     0.107 C 
HETATM   12  C   UNL     1       3.989   2.610   5.606  1.00  0.00     0.053 C 
HETATM   13  C   UNL     1       4.050   3.243   6.987  1.00  0.00     0.169 C 
HETATM   14  O   UNL     1       5.001   4.310   6.948  1.00  0.00    -0.389 OA
HETATM   15  C   UNL     1       5.204   4.638   5.573  1.00  0.00     0.192 C 
ENDBRANCH   9  11
ENDBRANCH   4   9
BRANCH   1  16
HETATM   16  O   UNL     1       2.602   0.325  -0.527  1.00  0.00    -0.341 OA
HETATM   17  C   UNL     1       3.320  -0.892  -0.714  1.00  0.00     0.211 C 
ENDBRANCH   1  16
TORSDOF 3
