REMARK  5 active torsions:
REMARK  status: ('A' for Active; 'I' for Inactive)
REMARK    1  A    between atoms: O_2  and  C_3 
REMARK    2  A    between atoms: C_8  and  N_9 
REMARK       I    between atoms: N_9  and  C_10 
REMARK       I    between atoms: C_10  and  N_12 
REMARK    3  A    between atoms: N_12  and  C_13 
REMARK    4  A    between atoms: C_13  and  C_14 
REMARK    5  A    between atoms: C_14  and  C_15 
ROOT
HETATM    1  N   UNL     1       5.101  -1.219  -0.023  1.00  0.00    -0.336 N 
HETATM    2  C   UNL     1       5.915  -0.251  -0.553  1.00  0.00     0.316 C 
HETATM    3  O   UNL     1       5.887   0.098  -1.727  1.00  0.00    -0.247 OA
HETATM    4  N   UNL     1       6.797   0.254   0.367  1.00  0.00    -0.343 N 
HETATM    5  H   UNL     1       4.855  -1.108   0.951  1.00  0.00     0.164 HD
HETATM    6  H   UNL     1       6.865  -0.201   1.265  1.00  0.00     0.164 HD
ENDROOT
BRANCH   1   7
HETATM    7  C   UNL     1       4.063  -1.819  -0.859  1.00  0.00     0.115 C 
HETATM    8  C   UNL     1       2.766  -0.969  -0.866  1.00  0.00     0.143 C 
HETATM    9  C   UNL     1       1.759  -1.609  -1.836  1.00  0.00     0.034 C 
HETATM   10  C   UNL     1       1.467  -3.071  -1.496  1.00  0.00     0.003 C 
HETATM   11  C   UNL     1       2.739  -3.904  -1.343  1.00  0.00     0.002 C 
HETATM   12  C   UNL     1       3.757  -3.252  -0.407  1.00  0.00     0.028 C 
BRANCH   8  13
HETATM   13  O   UNL     1       2.275  -0.916   0.488  1.00  0.00    -0.389 OA
HETATM   14  C   UNL     1       1.105  -0.129   0.656  1.00  0.00     0.202 C 
ENDBRANCH   8  13
ENDBRANCH   1   7
BRANCH   4  15
HETATM   15  C   UNL     1       7.837   1.167  -0.073  1.00  0.00     0.129 C 
BRANCH  15  16
HETATM   16  C   UNL     1       8.837   1.535   1.023  1.00  0.00     0.059 C 
BRANCH  16  17
HETATM   17  C   UNL     1       9.853   2.540   0.524  1.00  0.00    -0.048 A 
HETATM   18  C   UNL     1       9.555   3.908   0.632  1.00  0.00     0.024 A 
HETATM   19  C   UNL     1      10.451   4.837   0.128  1.00  0.00     0.088 A 
HETATM   20  N   UNL     1      11.610   4.508  -0.471  1.00  0.00    -0.375 N 
HETATM   21  C   UNL     1      11.883   3.186  -0.570  1.00  0.00     0.094 A 
ATOM     22  HN  UNL     1      12.249   5.217  -0.831  1.00  0.00     0.164 HD
HETATM   23  C   UNL     1      11.058   2.167  -0.095  1.00  0.00    -0.040 A 
HETATM   24  C   UNL     1      11.475   0.738  -0.276  1.00  0.00     0.050 C 
ENDBRANCH  16  17
ENDBRANCH  15  16
ENDBRANCH   4  15
TORSDOF 5
