REMARK  4 active torsions:
REMARK  status: ('A' for Active; 'I' for Inactive)
REMARK    1  A    between atoms: C_2  and  N_3 
REMARK    2  A    between atoms: C_6  and  C_7 
REMARK    3  A    between atoms: C_7  and  N_8 
REMARK       I    between atoms: N_8  and  C_9 
REMARK       I    between atoms: C_9  and  N_11 
REMARK    4  A    between atoms: N_11  and  C_12 
ROOT
HETATM    1  N   UNL     1       5.081   2.797   2.224  1.00  0.00    -0.342 N 
HETATM    2  C   UNL     1       6.374   2.968   2.675  1.00  0.00     0.321 C 
HETATM    3  O   UNL     1       6.918   4.065   2.663  1.00  0.00    -0.247 OA
HETATM    4  N   UNL     1       6.881   1.792   3.177  1.00  0.00    -0.293 N 
HETATM    5  H   UNL     1       4.867   1.906   1.786  1.00  0.00     0.164 HD
HETATM    6  H   UNL     1       6.219   1.060   3.371  1.00  0.00     0.172 HD
ENDROOT
BRANCH   1   7
HETATM    7  C   UNL     1       4.363   3.936   1.689  1.00  0.00     0.130 C 
BRANCH   7   8
HETATM    8  C   UNL     1       2.937   3.618   1.224  1.00  0.00     0.033 C 
HETATM    9  C   UNL     1       2.070   3.021   2.327  1.00  0.00     0.038 C 
HETATM   10  C   UNL     1       2.164   1.509   2.145  1.00  0.00     0.273 C 
HETATM   11  N   UNL     1       2.951   1.284   0.919  1.00  0.00     0.088 N 
HETATM   12  C   UNL     1       2.877   2.539   0.149  1.00  0.00     0.278 C 
BRANCH  11  13
HETATM   13  C   UNL     1       2.471   0.149   0.123  1.00  0.00     0.268 C 
HETATM   14  C   UNL     1       2.672  -1.185   0.832  1.00  0.00     0.037 C 
ENDBRANCH  11  13
ENDBRANCH   7   8
ENDBRANCH   1   7
BRANCH   4  15
HETATM   15  C   UNL     1       8.136   1.689   3.743  1.00  0.00     0.132 A 
HETATM   16  C   UNL     1       8.538   0.623   4.585  1.00  0.00     0.084 A 
HETATM   17  C   UNL     1       9.802   0.969   4.999  1.00  0.00     0.076 A 
HETATM   18  C   UNL     1      10.779   0.404   5.943  1.00  0.00     0.079 C 
HETATM   19  O   UNL     1      10.169   2.120   4.383  1.00  0.00    -0.241 OA
HETATM   20  N   UNL     1       9.133   2.566   3.593  1.00  0.00    -0.245 N 
ATOM     21  HN  UNL     1       9.128   3.402   3.008  1.00  0.00     0.196 HD
ENDBRANCH   4  15
TORSDOF 4
