REMARK  7 active torsions:
REMARK  status: ('A' for Active; 'I' for Inactive)
REMARK    1  A    between atoms: N_6  and  C_7 
REMARK    2  A    between atoms: C_7  and  C_8 
REMARK    3  A    between atoms: C_8  and  O_9 
REMARK    4  A    between atoms: C_8  and  C_10 
REMARK    5  A    between atoms: C_10  and  O_11 
REMARK    6  A    between atoms: O_11  and  C_12 
REMARK    7  A    between atoms: C_12  and  C_13 
ROOT
HETATM    1  C   UNL     1       6.666   0.099   0.101  1.00  0.00     0.166 C 
ENDROOT
BRANCH   1   2
HETATM    2  N   UNL     1       5.207   0.062   0.177  1.00  0.00    -0.307 N 
HETATM    3  C   UNL     1       4.454   0.077  -0.965  1.00  0.00     0.186 A 
HETATM    4  N   UNL     1       3.166   0.098  -1.004  1.00  0.00    -0.355 N 
HETATM    5  C   UNL     1       2.498   0.099   0.196  1.00  0.00     0.017 A 
ATOM      6  HN  UNL     1       2.663   0.113  -1.891  1.00  0.00     0.166 HD
HETATM    7  C   UNL     1       0.999   0.183   0.076  1.00  0.00     0.069 C 
HETATM    8  C   UNL     1       3.108   0.033   1.395  1.00  0.00     0.028 A 
HETATM    9  C   UNL     1       4.595  -0.019   1.409  1.00  0.00     0.256 A 
HETATM   10  C   UNL     1       2.391   0.024   2.710  1.00  0.00     0.056 C 
HETATM   11  O   UNL     1       5.215  -0.114   2.466  1.00  0.00    -0.267 OA
ENDBRANCH   1   2
BRANCH   1  12
HETATM   12  C   UNL     1       7.303  -1.304   0.059  1.00  0.00     0.160 C 
BRANCH  12  13
HETATM   13  O   UNL     1       6.907  -1.996  -1.134  1.00  0.00    -0.392 OA
HETATM   14  H   UNL     1       7.297  -1.548  -1.903  1.00  0.00     0.210 HD
ENDBRANCH  12  13
BRANCH  12  15
HETATM   15  C   UNL     1       8.837  -1.214   0.108  1.00  0.00     0.201 C 
BRANCH  15  16
HETATM   16  O   UNL     1       9.252  -0.542   1.290  1.00  0.00    -0.382 OA
BRANCH  16  17
HETATM   17  C   UNL     1      10.672  -0.413   1.367  1.00  0.00     0.232 C 
BRANCH  17  18
HETATM   18  C   UNL     1      10.992   0.282   2.638  1.00  0.00     0.076 A 
HETATM   19  C   UNL     1      10.239   0.755   3.694  1.00  0.00     0.037 A 
HETATM   20  C   UNL     1      11.150   1.324   4.615  1.00  0.00     0.027 A 
HETATM   21  C   UNL     1      12.400   1.163   4.066  1.00  0.00     0.142 A 
HETATM   22  O   UNL     1      12.315   0.534   2.866  1.00  0.00    -0.325 OA
ENDBRANCH  17  18
ENDBRANCH  16  17
ENDBRANCH  15  16
ENDBRANCH  12  15
ENDBRANCH   1  12
TORSDOF 7
