REMARK  4 active torsions:
REMARK  status: ('A' for Active; 'I' for Inactive)
REMARK    1  A    between atoms: C_5  and  N_9 
REMARK       I    between atoms: N_9  and  C_10 
REMARK       I    between atoms: C_10  and  N_12 
REMARK    2  A    between atoms: N_12  and  C_13 
REMARK    3  A    between atoms: C_13  and  C_14 
REMARK    4  A    between atoms: C_14  and  C_15 
ROOT
HETATM    1  N   UNL     1       4.726  -0.770  -2.968  1.00  0.00    -0.334 N 
HETATM    2  C   UNL     1       5.395   0.084  -3.805  1.00  0.00     0.316 C 
HETATM    3  O   UNL     1       4.861   0.872  -4.575  1.00  0.00    -0.247 OA
HETATM    4  N   UNL     1       6.765  -0.032  -3.682  1.00  0.00    -0.343 N 
HETATM    5  H   UNL     1       5.252  -1.055  -2.156  1.00  0.00     0.165 HD
HETATM    6  H   UNL     1       7.075  -0.979  -3.524  1.00  0.00     0.164 HD
ENDROOT
BRANCH   1   7
HETATM    7  C   UNL     1       3.249  -0.797  -2.868  1.00  0.00     0.031 C 
HETATM    8  C   UNL     1       2.677   0.585  -2.466  1.00  0.00     0.031 C 
HETATM    9  C   UNL     1       3.030   0.979  -1.031  1.00  0.00     0.007 C 
HETATM   10  C   UNL     1       2.564  -0.062  -0.007  1.00  0.00    -0.019 C 
HETATM   11  C   UNL     1       1.039  -0.067   0.137  1.00  0.00     0.010 C 
HETATM   12  C   UNL     1       3.112  -1.447  -0.370  1.00  0.00     0.007 C 
HETATM   13  C   UNL     1       2.820  -1.855  -1.817  1.00  0.00     0.031 C 
HETATM   14  C   UNL     1       2.647  -1.230  -4.223  1.00  0.00     0.038 C 
ENDBRANCH   1   7
BRANCH   4  15
HETATM   15  C   UNL     1       7.558   0.782  -4.592  1.00  0.00     0.130 C 
BRANCH  15  16
HETATM   16  C   UNL     1       9.065   0.631  -4.426  1.00  0.00     0.076 C 
BRANCH  16  17
HETATM   17  C   UNL     1       9.756   1.579  -5.375  1.00  0.00     0.010 A 
HETATM   18  C   UNL     1      10.072   2.875  -4.974  1.00  0.00     0.025 A 
HETATM   19  C   UNL     1      10.585   3.764  -5.916  1.00  0.00     0.003 A 
HETATM   20  C   UNL     1      10.766   3.339  -7.225  1.00  0.00     0.017 A 
HETATM   21  C   UNL     1      10.437   2.031  -7.538  1.00  0.00     0.088 A 
HETATM   22  N   UNL     1       9.940   1.146  -6.646  1.00  0.00    -0.369 N 
ATOM     23  HN  UNL     1       9.712   0.190  -6.918  1.00  0.00     0.165 HD
ENDBRANCH  16  17
ENDBRANCH  15  16
ENDBRANCH   4  15
TORSDOF 4
