REMARK  4 active torsions:
REMARK  status: ('A' for Active; 'I' for Inactive)
REMARK    1  A    between atoms: C_2  and  C_3 
REMARK    2  A    between atoms: C_2  and  N_14 
REMARK    3  A    between atoms: C_3  and  N_4 
REMARK       I    between atoms: N_4  and  C_5 
REMARK       I    between atoms: C_5  and  N_7 
REMARK    4  A    between atoms: N_7  and  C_8 
ROOT
HETATM    1  N   UNL     1       2.367   2.039  -1.653  1.00  0.00    -0.341 N 
HETATM    2  C   UNL     1       3.117   1.680  -2.760  1.00  0.00     0.322 C 
HETATM    3  O   UNL     1       4.156   1.043  -2.651  1.00  0.00    -0.247 OA
HETATM    4  N   UNL     1       2.504   2.075  -3.920  1.00  0.00    -0.289 N 
HETATM    5  H   UNL     1       1.791   2.863  -1.731  1.00  0.00     0.164 HD
HETATM    6  H   UNL     1       1.514   2.255  -3.913  1.00  0.00     0.172 HD
ENDROOT
BRANCH   1   7
HETATM    7  C   UNL     1       2.806   1.644  -0.320  1.00  0.00     0.159 C 
BRANCH   7   8
HETATM    8  C   UNL     1       2.371   0.190   0.038  1.00  0.00     0.237 C 
HETATM    9  C   UNL     1       0.827   0.166   0.075  1.00  0.00     0.044 C 
BRANCH   8  10
HETATM   10  N   UNL     1       2.945  -0.296   1.328  1.00  0.00     0.099 N 
HETATM   11  C   UNL     1       4.435  -0.304   1.333  1.00  0.00     0.304 C 
HETATM   12  C   UNL     1       5.053  -1.364   0.390  1.00  0.00     0.146 C 
HETATM   13  C   UNL     1       6.573  -1.354   0.488  1.00  0.00     0.041 C 
HETATM   14  O   UNL     1       4.596  -2.681   0.749  1.00  0.00    -0.378 OA
HETATM   15  C   UNL     1       3.160  -2.756   0.722  1.00  0.00     0.146 C 
HETATM   16  C   UNL     1       2.758  -4.160   1.151  1.00  0.00     0.041 C 
HETATM   17  C   UNL     1       2.544  -1.691   1.661  1.00  0.00     0.304 C 
ENDBRANCH   8  10
ENDBRANCH   7   8
ENDBRANCH   1   7
BRANCH   4  18
HETATM   18  C   UNL     1       3.085   1.861  -5.139  1.00  0.00     0.152 A 
HETATM   19  N   UNL     1       4.333   1.596  -5.426  1.00  0.00    -0.346 N 
HETATM   20  C   UNL     1       4.461   1.412  -6.787  1.00  0.00     0.097 A 
ATOM     21  HN  UNL     1       5.093   1.535  -4.749  1.00  0.00     0.167 HD
HETATM   22  C   UNL     1       3.300   1.554  -7.517  1.00  0.00     0.070 A 
HETATM   23  S   UNL     1       2.010   1.973  -6.463  1.00  0.00    -0.064 SA
ENDBRANCH   4  18
TORSDOF 4
