REMARK  4 active torsions:
REMARK  status: ('A' for Active; 'I' for Inactive)
REMARK    1  A    between atoms: C_2  and  C_3 
REMARK    2  A    between atoms: C_2  and  N_10 
REMARK    3  A    between atoms: C_3  and  N_4 
REMARK       I    between atoms: N_10  and  C_11 
REMARK    4  A    between atoms: C_11  and  C_13 
ROOT
HETATM    1  N   UNL     1       2.979  -1.040   1.032  1.00  0.00    -0.355 N 
HETATM    2  C   UNL     1       4.336  -1.255   0.960  1.00  0.00     0.222 C 
HETATM    3  O   UNL     1       5.078  -0.450   0.398  1.00  0.00    -0.273 OA
HETATM    4  H   UNL     1       2.377  -1.790   1.338  1.00  0.00     0.162 HD
ENDROOT
BRANCH   1   5
HETATM    5  C   UNL     1       2.366   0.096   0.343  1.00  0.00     0.098 C 
HETATM    6  C   UNL     1       2.070  -0.275  -1.111  1.00  0.00     0.034 C 
BRANCH   5   7
HETATM    7  C   UNL     1       1.087   0.577   1.044  1.00  0.00     0.153 C 
BRANCH   7   8
HETATM    8  N   UNL     1       1.292   0.978   2.422  1.00  0.00    -0.350 N 
HETATM    9  C   UNL     1       0.681   0.437   3.520  1.00  0.00     0.108 A 
HETATM   10  C   UNL     1       1.172   1.153   4.586  1.00  0.00     0.106 A 
HETATM   11  N   UNL     1       2.050   2.115   4.162  1.00  0.00    -0.361 N 
HETATM   12  C   UNL     1       2.102   1.988   2.855  1.00  0.00     0.182 A 
ATOM     13  HN  UNL     1       2.556   2.787   4.738  1.00  0.00     0.166 HD
ENDBRANCH   7   8
ENDBRANCH   5   7
ENDBRANCH   1   5
BRANCH   2  14
HETATM   14  C   UNL     1       4.892  -2.487   1.694  1.00  0.00     0.078 C 
HETATM   15  C   UNL     1       6.189  -2.950   1.002  1.00  0.00     0.014 C 
HETATM   16  C   UNL     1       5.899  -3.585  -0.360  1.00  0.00     0.001 C 
HETATM   17  C   UNL     1       4.917  -4.748  -0.243  1.00  0.00     0.000 C 
HETATM   18  C   UNL     1       3.642  -4.356   0.500  1.00  0.00     0.001 C 
HETATM   19  C   UNL     1       3.948  -3.688   1.839  1.00  0.00     0.014 C 
ENDBRANCH   2  14
TORSDOF 4
