REMARK  6 active torsions:
REMARK  status: ('A' for Active; 'I' for Inactive)
REMARK    1  A    between atoms: N_1  and  C_8 
REMARK    2  A    between atoms: N_2  and  C1*_5 
REMARK    3  A    between atoms: C_8  and  C_11 
REMARK    4  A    between atoms: C4*_14  and  C5*_24 
REMARK    5  A    between atoms: C3*_16  and  O3*_23 
REMARK    6  A    between atoms: C5*_24  and  O5*_25 
ROOT
HETATM    1  N   UNL     1      -0.656   0.999   0.030  1.00  0.00    -0.261 N 
HETATM    2  N   UNL     1      -0.443  -1.343  -0.082  1.00  0.00    -0.281 N 
HETATM    3  C   UNL     1      -1.219  -0.219  -0.333  1.00  0.00     0.333 C 
HETATM    4  C   UNL     1       0.715   1.167   0.118  1.00  0.00     0.259 C 
HETATM    5  C   UNL     1       1.545  -0.072   0.128  1.00  0.00     0.022 C 
HETATM    6  C   UNL     1       0.917  -1.254   0.096  1.00  0.00     0.110 C 
HETATM    7  O   UNL     1      -2.337  -0.315  -0.841  1.00  0.00    -0.246 OA
HETATM    8  O   UNL     1       1.260   2.268   0.161  1.00  0.00    -0.267 OA
HETATM    9  C   UNL     1       3.036   0.055   0.192  1.00  0.00     0.056 C 
ENDROOT
BRANCH   1  10
HETATM   10  C   UNL     1      -1.497   2.180  -0.041  1.00  0.00     0.176 C 
BRANCH  10  11
HETATM   11  C   UNL     1      -1.955   2.785   1.287  1.00  0.00    -0.025 C 
HETATM   12  C   UNL     1      -3.238   2.515   1.839  1.00  0.00    -0.002 A 
HETATM   13  C   UNL     1      -3.734   3.426   2.798  1.00  0.00     0.043 A 
HETATM   14  C   UNL     1      -4.075   1.438   1.463  1.00  0.00     0.014 A 
HETATM   15  N   UNL     1      -3.000   4.427   3.304  1.00  0.00    -0.359 N 
HETATM   16  C   UNL     1      -5.055   3.327   3.213  1.00  0.00     0.030 A 
HETATM   17  C   UNL     1      -1.734   4.593   2.867  1.00  0.00     0.006 C 
ATOM     18  HN  UNL     1      -3.392   5.053   4.008  1.00  0.00     0.166 HD
HETATM   19  C   UNL     1      -1.184   3.817   1.857  1.00  0.00     0.034 C 
HETATM   20  C   UNL     1      -0.985   5.728   3.494  1.00  0.00     0.068 C 
HETATM   21  C   UNL     1      -5.899   2.315   2.760  1.00  0.00     0.002 A 
HETATM   22  C   UNL     1      -5.391   1.338   1.914  1.00  0.00     0.001 A 
ENDBRANCH  10  11
ENDBRANCH   1  10
BRANCH   2  23
HETATM   23  C1* UNL     1      -1.158  -2.602   0.018  1.00  0.00     0.235 C 
HETATM   24  O4* UNL     1      -0.672  -3.355   1.147  1.00  0.00    -0.356 OA
HETATM   25  C4* UNL     1      -0.976  -4.749   0.888  1.00  0.00     0.176 C 
HETATM   26  C3* UNL     1      -1.637  -4.811  -0.503  1.00  0.00     0.153 C 
HETATM   27  C2* UNL     1      -1.095  -3.553  -1.164  1.00  0.00     0.088 C 
BRANCH  25  28
HETATM   28  C5* UNL     1      -1.817  -5.278   2.048  1.00  0.00     0.198 C 
BRANCH  28  29
HETATM   29  O5* UNL     1      -2.997  -4.482   2.200  1.00  0.00    -0.398 OA
HETATM   30  H5* UNL     1      -2.707  -3.654   2.633  1.00  0.00     0.209 HD
ENDBRANCH  28  29
ENDBRANCH  25  28
BRANCH  26  31
HETATM   31  O3* UNL     1      -3.063  -4.730  -0.497  1.00  0.00    -0.393 OA
HETATM   32  H3* UNL     1      -3.371  -4.484   0.402  1.00  0.00     0.210 HD
ENDBRANCH  26  31
ENDBRANCH   2  23
TORSDOF 6
