REMARK  4 active torsions:
REMARK  status: ('A' for Active; 'I' for Inactive)
REMARK    1  A    between atoms: C_2  and  N_4 
REMARK       I    between atoms: N_7  and  C_10 
REMARK       I    between atoms: C_10  and  N_12 
REMARK    2  A    between atoms: N_12  and  C_13 
REMARK    3  A    between atoms: N_17  and  C_18 
REMARK    4  A    between atoms: C_18  and  C_19 
REMARK       I    between atoms: C_19  and  N_21 
ROOT
HETATM    1  N   UNL     1       2.855   1.041   0.455  1.00  0.00     0.095 N 
HETATM    2  C   UNL     1       2.654   2.312  -0.279  1.00  0.00     0.292 C 
HETATM    3  C   UNL     1       3.415   2.435  -1.619  1.00  0.00     0.158 C 
HETATM    4  N   UNL     1       4.831   2.048  -1.535  1.00  0.00    -0.331 N 
HETATM    5  C   UNL     1       5.126   0.906  -0.659  1.00  0.00     0.158 C 
HETATM    6  C   UNL     1       4.319   0.914   0.650  1.00  0.00     0.292 C 
HETATM    7  C   UNL     1       5.792   2.307  -2.515  1.00  0.00     0.323 C 
HETATM    8  O   UNL     1       6.859   1.694  -2.528  1.00  0.00    -0.247 OA
HETATM    9  N   UNL     1       5.473   3.281  -3.432  1.00  0.00    -0.306 N 
HETATM   10  H   UNL     1       4.654   3.847  -3.300  1.00  0.00     0.171 HD
ENDROOT
BRANCH   9  11
HETATM   11  C   UNL     1       6.325   3.675  -4.452  1.00  0.00     0.070 A 
HETATM   12  C   UNL     1       7.549   3.138  -4.910  1.00  0.00     0.138 A 
HETATM   13  N   UNL     1       8.071   3.840  -5.922  1.00  0.00    -0.307 N 
HETATM   14  N   UNL     1       7.195   4.850  -6.088  1.00  0.00    -0.293 N 
ATOM     15  HN  UNL     1       8.928   3.655  -6.444  1.00  0.00     0.186 HD
HETATM   16  C   UNL     1       6.110   4.769  -5.257  1.00  0.00     0.141 A 
BRANCH  14  17
HETATM   17  C   UNL     1       7.515   5.920  -7.011  1.00  0.00     0.250 C 
BRANCH  17  18
HETATM   18  C   UNL     1       6.482   6.037  -8.100  1.00  0.00     0.235 C 
HETATM   19  O   UNL     1       5.462   6.710  -7.994  1.00  0.00    -0.272 OA
HETATM   20  N   UNL     1       6.743   5.346  -9.253  1.00  0.00    -0.369 N 
HETATM   21  H   UNL     1       7.422   4.594  -9.280  1.00  0.00     0.159 HD
HETATM   22  H   UNL     1       6.019   5.348  -9.962  1.00  0.00     0.159 HD
ENDBRANCH  17  18
ENDBRANCH  14  17
ENDBRANCH   9  11
BRANCH   1  23
HETATM   23  C   UNL     1       2.252  -0.143  -0.207  1.00  0.00     0.215 C 
HETATM   24  C   UNL     1       2.495  -1.431   0.603  1.00  0.00     0.042 C 
HETATM   25  C   UNL     1       0.730  -0.018  -0.388  1.00  0.00     0.042 C 
ENDBRANCH   1  23
TORSDOF 4
