REMARK  6 active torsions:
REMARK  status: ('A' for Active; 'I' for Inactive)
REMARK    1  A    between atoms: C_5  and  C_6 
REMARK    2  A    between atoms: C_6  and  C_7 
REMARK    3  A    between atoms: C_7  and  N_8 
REMARK       I    between atoms: N_8  and  C_9 
REMARK    4  A    between atoms: C_9  and  C_11 
REMARK    5  A    between atoms: C_11  and  C_12 
REMARK    6  A    between atoms: C_12  and  C_13 
ROOT
HETATM    1  N   UNL     1       8.225   1.636   0.007  1.00  0.00    -0.361 N 
HETATM    2  C   UNL     1       9.490   1.111   0.107  1.00  0.00     0.217 C 
HETATM    3  O   UNL     1       9.725  -0.091   0.185  1.00  0.00    -0.274 OA
HETATM    4  H   UNL     1       8.075   2.637   0.123  1.00  0.00     0.162 HD
ENDROOT
BRANCH   2   5
HETATM    5  C   UNL     1      10.594   2.144   0.172  1.00  0.00     0.105 C 
BRANCH   5   6
HETATM    6  C   UNL     1      10.922   2.471   1.628  1.00  0.00     0.044 C 
BRANCH   6   7
HETATM    7  C   UNL     1      12.160   3.342   1.774  1.00  0.00     0.179 C 
HETATM    8  N   UNL     1      12.488   3.603   3.158  1.00  0.00    -0.330 N 
HETATM    9  C   UNL     1      12.714   4.939   3.392  1.00  0.00     0.323 C 
HETATM   10  H   UNL     1      12.713   2.911   3.861  1.00  0.00     0.165 HD
HETATM   11  O   UNL     1      13.088   5.413   4.450  1.00  0.00    -0.247 OA
HETATM   12  N   UNL     1      12.440   5.625   2.262  1.00  0.00    -0.278 N 
HETATM   13  C   UNL     1      12.012   4.787   1.281  1.00  0.00     0.248 C 
HETATM   14  H   UNL     1      12.483   6.627   2.188  1.00  0.00     0.173 HD
HETATM   15  O   UNL     1      11.622   5.142   0.179  1.00  0.00    -0.271 OA
ENDBRANCH   6   7
ENDBRANCH   5   6
ENDBRANCH   2   5
BRANCH   1  16
HETATM   16  C   UNL     1       7.040   0.798   0.074  1.00  0.00     0.128 C 
BRANCH  16  17
HETATM   17  C   UNL     1       5.833   1.422  -0.626  1.00  0.00     0.077 C 
BRANCH  17  18
HETATM   18  C   UNL     1       5.334   2.662   0.046  1.00  0.00     0.018 A 
HETATM   19  N   UNL     1       6.175   3.765   0.130  1.00  0.00    -0.357 N 
HETATM   20  C   UNL     1       5.549   4.767   0.712  1.00  0.00     0.046 A 
ATOM     21  HN  UNL     1       7.136   3.794  -0.209  1.00  0.00     0.166 HD
HETATM   22  C   UNL     1       6.139   6.114   0.943  1.00  0.00     0.076 C 
HETATM   23  S   UNL     1       3.940   4.439   1.221  1.00  0.00    -0.087 SA
HETATM   24  C   UNL     1       4.082   2.851   0.600  1.00  0.00     0.076 A 
ENDBRANCH  17  18
ENDBRANCH  16  17
ENDBRANCH   1  16
TORSDOF 6
