REMARK  4 active torsions:
REMARK  status: ('A' for Active; 'I' for Inactive)
REMARK    1  A    between atoms: C_2  and  C_3 
REMARK    2  A    between atoms: C_2  and  N_10 
REMARK    3  A    between atoms: C_3  and  N_4 
REMARK       I    between atoms: N_10  and  C_11 
REMARK    4  A    between atoms: C_11  and  C_13 
ROOT
HETATM    1  N   UNL     1       3.103  -1.149   0.649  1.00  0.00    -0.355 N 
HETATM    2  C   UNL     1       4.468  -1.296   0.587  1.00  0.00     0.222 C 
HETATM    3  O   UNL     1       5.188  -0.453   0.055  1.00  0.00    -0.273 OA
HETATM    4  H   UNL     1       2.567  -1.777   1.237  1.00  0.00     0.162 HD
ENDROOT
BRANCH   1   5
HETATM    5  C   UNL     1       2.437   0.036   0.078  1.00  0.00     0.100 C 
HETATM    6  C   UNL     1       0.990  -0.323  -0.255  1.00  0.00     0.034 C 
BRANCH   5   7
HETATM    7  C   UNL     1       2.561   1.251   1.014  1.00  0.00     0.172 C 
BRANCH   7   8
HETATM    8  N   UNL     1       1.987   2.473   0.487  1.00  0.00    -0.302 N 
HETATM    9  C   UNL     1       2.620   3.440  -0.242  1.00  0.00     0.111 A 
HETATM   10  C   UNL     1       1.688   4.427  -0.464  1.00  0.00     0.037 A 
HETATM   11  C   UNL     1       0.523   3.968   0.180  1.00  0.00     0.108 A 
HETATM   12  N   UNL     1       0.704   2.782   0.768  1.00  0.00    -0.310 N 
ATOM     13  HN  UNL     1       0.029   2.237   1.305  1.00  0.00     0.186 HD
ENDBRANCH   7   8
ENDBRANCH   5   7
ENDBRANCH   1   5
BRANCH   2  14
HETATM   14  C   UNL     1       5.060  -2.521   1.280  1.00  0.00     0.081 C 
HETATM   15  C   UNL     1       4.423  -3.851   0.845  1.00  0.00     0.018 C 
HETATM   16  C   UNL     1       3.530  -4.577   1.852  1.00  0.00     0.027 C 
HETATM   17  C   UNL     1       3.804  -4.280   3.286  1.00  0.00    -0.031 C 
HETATM   18  C   UNL     1       4.547  -3.250   3.701  1.00  0.00    -0.030 C 
HETATM   19  C   UNL     1       5.200  -2.265   2.788  1.00  0.00     0.041 C 
ENDBRANCH   2  14
TORSDOF 4
