REMARK  5 active torsions:
REMARK  status: ('A' for Active; 'I' for Inactive)
REMARK    1  A    between atoms: C_2  and  C_3 
REMARK       I    between atoms: C_2  and  N_16 
REMARK    2  A    between atoms: C_3  and  C_4 
REMARK    3  A    between atoms: C_7  and  N_10 
REMARK    4  A    between atoms: N_16  and  C_17 
REMARK    5  A    between atoms: C_17  and  C_18 
ROOT
HETATM    1  C   UNL     1       1.810   2.352  -0.228  1.00  0.00     0.026 A 
HETATM    2  C   UNL     1       0.634   2.464   0.485  1.00  0.00     0.078 A 
HETATM    3  S   UNL     1      -0.225   3.861  -0.001  1.00  0.00    -0.064 SA
HETATM    4  C   UNL     1       1.011   4.226  -1.137  1.00  0.00     0.153 A 
HETATM    5  N   UNL     1       2.015   3.380  -1.145  1.00  0.00    -0.339 N 
ATOM      6  HN  UNL     1       2.837   3.464  -1.744  1.00  0.00     0.168 HD
ENDROOT
BRANCH   1   7
HETATM    7  C   UNL     1       2.875   1.306  -0.082  1.00  0.00     0.160 C 
BRANCH   7   8
HETATM    8  C   UNL     1       2.320  -0.100   0.110  1.00  0.00     0.223 C 
HETATM    9  O   UNL     1       1.588  -0.402   1.052  1.00  0.00    -0.273 OA
HETATM   10  N   UNL     1       2.717  -1.015  -0.847  1.00  0.00    -0.360 N 
HETATM   11  H   UNL     1       3.322  -0.714  -1.601  1.00  0.00     0.162 HD
BRANCH  10  12
HETATM   12  C   UNL     1       2.251  -2.388  -0.854  1.00  0.00     0.127 C 
BRANCH  12  13
HETATM   13  C   UNL     1       3.219  -3.214  -0.028  1.00  0.00     0.003 C 
HETATM   14  C   UNL     1       4.684  -3.392  -0.526  1.00  0.00     0.006 C 
HETATM   15  C   UNL     1       4.617  -4.822   0.057  1.00  0.00     0.001 C 
HETATM   16  C   UNL     1       3.095  -4.758  -0.195  1.00  0.00     0.006 C 
ENDBRANCH  12  13
ENDBRANCH  10  12
ENDBRANCH   7   8
ENDBRANCH   1   7
BRANCH   4  17
HETATM   17  N   UNL     1       0.846   5.357  -1.922  1.00  0.00    -0.298 N 
HETATM   18  C   UNL     1      -0.221   6.322  -1.853  1.00  0.00     0.134 C 
HETATM   19  C   UNL     1       0.009   7.289  -2.995  1.00  0.00     0.029 C 
HETATM   20  C   UNL     1       1.431   7.039  -3.456  1.00  0.00     0.105 C 
HETATM   21  C   UNL     1       1.810   5.703  -2.867  1.00  0.00     0.225 C 
HETATM   22  O   UNL     1       2.826   5.112  -3.203  1.00  0.00    -0.273 OA
ENDBRANCH   4  17
TORSDOF 5
