REMARK  5 active torsions:
REMARK  status: ('A' for Active; 'I' for Inactive)
REMARK    1  A    between atoms: C_2  and  C_3 
REMARK    2  A    between atoms: C_2  and  N_10 
REMARK    3  A    between atoms: C_3  and  N_4 
REMARK    4  A    between atoms: N_10  and  S_11 
REMARK    5  A    between atoms: S_11  and  N_14 
ROOT
HETATM    1  N   UNL     1       3.317  -1.124  -0.825  1.00  0.00    -0.197 NA
HETATM    2  H   UNL     1       2.933  -1.481  -1.702  1.00  0.00     0.141 HD
ENDROOT
BRANCH   1   3
HETATM    3  C   UNL     1       2.557   0.120  -0.422  1.00  0.00     0.087 C 
HETATM    4  C   UNL     1       1.088  -0.279  -0.247  1.00  0.00     0.029 C 
BRANCH   3   5
HETATM    5  C   UNL     1       3.122   0.774   0.853  1.00  0.00     0.149 C 
BRANCH   5   6
HETATM    6  N   UNL     1       2.436   1.989   1.250  1.00  0.00    -0.350 N 
HETATM    7  C   UNL     1       1.760   2.195   2.419  1.00  0.00     0.108 A 
HETATM    8  C   UNL     1       1.349   3.507   2.363  1.00  0.00     0.106 A 
HETATM    9  N   UNL     1       1.756   4.095   1.193  1.00  0.00    -0.361 N 
HETATM   10  C   UNL     1       2.427   3.165   0.553  1.00  0.00     0.182 A 
ATOM     11  HN  UNL     1       1.576   5.051   0.885  1.00  0.00     0.166 HD
ENDBRANCH   5   6
ENDBRANCH   3   5
ENDBRANCH   1   3
BRANCH   1  12
HETATM   12  S   UNL     1       4.964  -0.896  -1.112  1.00  0.00     0.299 S 
HETATM   13  O   UNL     1       5.043   0.117  -2.136  1.00  0.00    -0.188 OA
HETATM   14  O   UNL     1       5.633  -0.762   0.157  1.00  0.00    -0.188 OA
BRANCH  12  15
HETATM   15  N   UNL     1       5.329  -2.395  -1.781  1.00  0.00    -0.298 N 
HETATM   16  C   UNL     1       5.395  -3.568  -0.869  1.00  0.00     0.137 C 
HETATM   17  C   UNL     1       6.774  -3.729  -0.221  1.00  0.00     0.025 C 
HETATM   18  C   UNL     1       7.938  -3.669  -1.222  1.00  0.00    -0.015 C 
HETATM   19  C   UNL     1       8.068  -4.964  -2.029  1.00  0.00     0.010 C 
HETATM   20  C   UNL     1       7.783  -2.446  -2.133  1.00  0.00     0.025 C 
HETATM   21  C   UNL     1       6.412  -2.401  -2.796  1.00  0.00     0.137 C 
ENDBRANCH  12  15
ENDBRANCH   1  12
TORSDOF 5
