REMARK  5 active torsions:
REMARK  status: ('A' for Active; 'I' for Inactive)
REMARK    1  A    between atoms: C_2  and  C_3 
REMARK    2  A    between atoms: C_2  and  C_15 
REMARK    3  A    between atoms: C_3  and  N_4 
REMARK       I    between atoms: N_4  and  C_5 
REMARK       I    between atoms: C_5  and  N_7 
REMARK    4  A    between atoms: N_7  and  C_8 
REMARK    5  A    between atoms: C_8  and  C_9 
ROOT
HETATM    1  N   UNL     1       2.707   1.090  -2.425  1.00  0.00    -0.342 N 
HETATM    2  C   UNL     1       2.876   2.160  -3.259  1.00  0.00     0.316 C 
HETATM    3  O   UNL     1       3.427   3.204  -2.934  1.00  0.00    -0.247 OA
HETATM    4  N   UNL     1       2.368   1.915  -4.509  1.00  0.00    -0.340 N 
HETATM    5  H   UNL     1       1.905   0.501  -2.619  1.00  0.00     0.164 HD
HETATM    6  H   UNL     1       2.422   0.947  -4.798  1.00  0.00     0.164 HD
ENDROOT
BRANCH   1   7
HETATM    7  C   UNL     1       3.116   1.174  -1.034  1.00  0.00     0.135 C 
BRANCH   7   8
HETATM    8  C   UNL     1       3.329  -0.194  -0.368  1.00  0.00     0.057 C 
HETATM    9  C   UNL     1       4.357  -1.038  -1.123  1.00  0.00     0.018 C 
BRANCH   8  10
HETATM   10  C   UNL     1       2.028  -0.945  -0.231  1.00  0.00     0.056 A 
HETATM   11  N   UNL     1       1.258  -1.302  -1.240  1.00  0.00    -0.362 N 
HETATM   12  C   UNL     1       0.186  -2.035  -0.770  1.00  0.00     0.102 A 
ATOM     13  HN  UNL     1       1.428  -1.072  -2.219  1.00  0.00     0.165 HD
HETATM   14  C   UNL     1       0.133  -2.210   0.597  1.00  0.00    -0.004 A 
HETATM   15  C   UNL     1      -0.860  -2.945   1.420  1.00  0.00     0.058 C 
HETATM   16  S   UNL     1       1.468  -1.424   1.325  1.00  0.00    -0.080 SA
ENDBRANCH   8  10
ENDBRANCH   7   8
ENDBRANCH   1   7
BRANCH   4  17
HETATM   17  C   UNL     1       2.611   2.893  -5.557  1.00  0.00     0.161 C 
BRANCH  17  18
HETATM   18  C   UNL     1       1.912   2.572  -6.890  1.00  0.00     0.073 C 
HETATM   19  C   UNL     1       2.273   3.670  -7.904  1.00  0.00     0.047 C 
HETATM   20  C   UNL     1       0.397   2.401  -6.780  1.00  0.00     0.041 C 
HETATM   21  C   UNL     1       0.062   1.275  -7.741  1.00  0.00     0.029 C 
HETATM   22  C   UNL     1       1.392   0.784  -8.270  1.00  0.00     0.169 C 
HETATM   23  O   UNL     1       2.394   1.307  -7.391  1.00  0.00    -0.379 OA
ENDBRANCH  17  18
ENDBRANCH   4  17
TORSDOF 5
