REMARK  5 active torsions:
REMARK  status: ('A' for Active; 'I' for Inactive)
REMARK    1  A    between atoms: C_2  and  O_3 
REMARK    2  A    between atoms: O_3  and  C_4 
REMARK    3  A    between atoms: C_6  and  N_7 
REMARK       I    between atoms: N_7  and  C_8 
REMARK    4  A    between atoms: C_8  and  C_10 
REMARK    5  A    between atoms: C_10  and  N_11 
ROOT
HETATM    1  N   UNL     1       6.099  -0.322  -3.628  1.00  0.00    -0.354 N 
HETATM    2  C   UNL     1       5.985   0.376  -4.817  1.00  0.00     0.236 C 
HETATM    3  O   UNL     1       4.928   0.839  -5.240  1.00  0.00    -0.272 OA
HETATM    4  H   UNL     1       6.958  -0.851  -3.489  1.00  0.00     0.162 HD
ENDROOT
BRANCH   1   5
HETATM    5  C   UNL     1       4.949  -0.520  -2.734  1.00  0.00     0.098 C 
HETATM    6  C   UNL     1       4.946  -1.858  -1.964  1.00  0.00     0.059 C 
HETATM    7  C   UNL     1       4.270  -1.092  -0.794  1.00  0.00     0.133 C 
HETATM    8  C   UNL     1       5.003   0.205  -1.338  1.00  0.00     0.006 C 
HETATM    9  C   UNL     1       4.156   1.484  -1.254  1.00  0.00     0.014 C 
HETATM   10  C   UNL     1       6.370   0.407  -0.646  1.00  0.00     0.014 C 
HETATM   11  C   UNL     1       4.916   2.677  -1.828  1.00  0.00     0.001 C 
HETATM   12  C   UNL     1       6.238   2.890  -1.100  1.00  0.00     0.000 C 
HETATM   13  C   UNL     1       7.106   1.639  -1.171  1.00  0.00     0.001 C 
BRANCH   7  14
HETATM   14  O   UNL     1       2.820  -1.061  -0.821  1.00  0.00    -0.385 OA
BRANCH  14  15
HETATM   15  C   UNL     1       2.154  -2.289  -0.539  1.00  0.00     0.163 C 
HETATM   16  C   UNL     1       0.657  -2.064  -0.597  1.00  0.00     0.033 C 
ENDBRANCH  14  15
ENDBRANCH   7  14
ENDBRANCH   1   5
BRANCH   2  17
HETATM   17  C   UNL     1       7.277   0.470  -5.621  1.00  0.00     0.235 C 
BRANCH  17  18
HETATM   18  N   UNL     1       7.349  -0.623  -6.585  1.00  0.00    -0.301 N 
HETATM   19  C   UNL     1       6.859  -0.451  -7.862  1.00  0.00     0.102 A 
HETATM   20  C   UNL     1       6.879  -1.433  -8.764  1.00  0.00     0.092 A 
HETATM   21  C   UNL     1       7.444  -2.737  -8.377  1.00  0.00     0.250 A 
HETATM   22  O   UNL     1       7.454  -3.679  -9.160  1.00  0.00    -0.268 OA
HETATM   23  N   UNL     1       7.935  -2.820  -7.106  1.00  0.00    -0.275 N 
HETATM   24  C   UNL     1       7.864  -1.837  -6.154  1.00  0.00     0.329 A 
HETATM   25  H   UNL     1       8.302  -3.712  -6.817  1.00  0.00     0.173 HD
HETATM   26  O   UNL     1       8.223  -2.046  -4.995  1.00  0.00    -0.246 OA
ENDBRANCH  17  18
ENDBRANCH   2  17
TORSDOF 5
