REMARK  7 active torsions:
REMARK  status: ('A' for Active; 'I' for Inactive)
REMARK    1  A    between atoms: C_2  and  C_3 
REMARK       I    between atoms: C_2  and  N_11 
REMARK    2  A    between atoms: C_3  and  C_4 
REMARK    3  A    between atoms: N_11  and  C_12 
REMARK    4  A    between atoms: C_12  and  C_13 
REMARK    5  A    between atoms: C_13  and  C_14 
REMARK    6  A    between atoms: C_14  and  C_15 
REMARK    7  A    between atoms: C_15  and  C_16 
ROOT
HETATM    1  O   UNL     1       3.300   0.409  -2.922  1.00  0.00    -0.273 OA
HETATM    2  C   UNL     1       4.301   0.850  -2.364  1.00  0.00     0.221 C 
HETATM    3  N   UNL     1       4.869   0.268  -1.252  1.00  0.00    -0.361 N 
HETATM    4  H   UNL     1       5.777   0.589  -0.941  1.00  0.00     0.162 HD
ENDROOT
BRANCH   3   5
HETATM    5  C   UNL     1       4.364  -0.971  -0.695  1.00  0.00     0.122 C 
BRANCH   5   6
HETATM    6  C   UNL     1       4.948  -2.207  -1.385  1.00  0.00     0.020 C 
BRANCH   6   7
HETATM    7  C   UNL     1       6.481  -2.272  -1.391  1.00  0.00     0.002 C 
BRANCH   7   8
HETATM    8  C   UNL     1       7.087  -2.287   0.015  1.00  0.00     0.005 C 
BRANCH   8   9
HETATM    9  C   UNL     1       8.617  -2.325   0.012  1.00  0.00    -0.014 C 
HETATM   10  C   UNL     1       9.194  -2.314   1.435  1.00  0.00     0.004 C 
HETATM   11  C   UNL     1      10.488  -1.503   1.369  1.00  0.00     0.000 C 
HETATM   12  C   UNL     1      10.681  -1.136  -0.095  1.00  0.00     0.000 C 
HETATM   13  C   UNL     1       9.271  -1.118  -0.659  1.00  0.00     0.004 C 
ENDBRANCH   8   9
ENDBRANCH   7   8
ENDBRANCH   6   7
ENDBRANCH   5   6
ENDBRANCH   3   5
BRANCH   2  14
HETATM   14  C   UNL     1       5.023   2.092  -2.856  1.00  0.00     0.142 C 
BRANCH  14  15
HETATM   15  C   UNL     1       5.947   1.828  -4.013  1.00  0.00    -0.034 A 
HETATM   16  C   UNL     1       7.300   2.180  -3.961  1.00  0.00     0.010 A 
HETATM   17  C   UNL     1       8.111   1.976  -5.074  1.00  0.00     0.018 A 
HETATM   18  C   UNL     1       7.542   1.426  -6.209  1.00  0.00     0.087 A 
HETATM   19  N   UNL     1       6.244   1.067  -6.297  1.00  0.00    -0.375 N 
HETATM   20  C   UNL     1       5.477   1.276  -5.202  1.00  0.00     0.095 A 
ATOM     21  HN  UNL     1       5.859   0.658  -7.148  1.00  0.00     0.164 HD
ENDBRANCH  14  15
ENDBRANCH   2  14
TORSDOF 7
