REMARK  4 active torsions:
REMARK  status: ('A' for Active; 'I' for Inactive)
REMARK       I    between atoms: N_2  and  C_3 
REMARK    1  A    between atoms: C_3  and  C_5 
REMARK    2  A    between atoms: C_5  and  C_6 
REMARK    3  A    between atoms: C_10  and  C_11 
REMARK    4  A    between atoms: C_11  and  C_12 
ROOT
HETATM    1  C   UNL     1       5.673  -2.055   1.800  1.00  0.00     0.112 A 
HETATM    2  N   UNL     1       5.362  -1.234   2.812  1.00  0.00    -0.247 N 
ATOM      3  HN  UNL     1       5.053  -0.263   2.764  1.00  0.00     0.196 HD
HETATM    4  O   UNL     1       5.559  -2.016   3.940  1.00  0.00    -0.223 OA
HETATM    5  C   UNL     1       5.961  -3.248   3.505  1.00  0.00     0.148 A 
HETATM    6  N   UNL     1       6.027  -3.336   2.194  1.00  0.00    -0.326 N 
ATOM      7  HN  UNL     1       6.275  -4.139   1.617  1.00  0.00     0.169 HD
ENDROOT
BRANCH   5   8
HETATM    8  C   UNL     1       6.380  -4.183   4.582  1.00  0.00     0.091 C 
BRANCH   8   9
HETATM    9  C   UNL     1       5.717  -5.559   4.561  1.00  0.00    -0.002 C 
HETATM   10  C   UNL     1       4.180  -5.625   4.699  1.00  0.00     0.010 C 
HETATM   11  C   UNL     1       3.963  -6.784   5.707  1.00  0.00    -0.014 C 
HETATM   12  C   UNL     1       4.208  -6.251   7.124  1.00  0.00     0.005 C 
HETATM   13  C   UNL     1       5.206  -7.656   5.520  1.00  0.00     0.009 C 
HETATM   14  C   UNL     1       5.712  -5.942   7.100  1.00  0.00     0.005 C 
HETATM   15  C   UNL     1       6.168  -6.483   5.723  1.00  0.00    -0.010 C 
ENDBRANCH   8   9
ENDBRANCH   5   8
BRANCH   1  16
HETATM   16  C   UNL     1       5.545  -1.595   0.392  1.00  0.00     0.181 C 
BRANCH  16  17
HETATM   17  C   UNL     1       6.582  -2.120  -0.578  1.00  0.00     0.224 C 
HETATM   18  N   UNL     1       6.941  -3.440  -0.448  1.00  0.00    -0.365 N 
HETATM   19  C   UNL     1       7.892  -4.050  -1.340  1.00  0.00     0.149 C 
HETATM   20  H   UNL     1       6.659  -3.936   0.396  1.00  0.00     0.161 HD
HETATM   21  O   UNL     1       6.999  -1.418  -1.501  1.00  0.00    -0.273 OA
ENDBRANCH  16  17
ENDBRANCH   1  16
TORSDOF 4
