REMARK  4 active torsions:
REMARK  status: ('A' for Active; 'I' for Inactive)
REMARK       I    between atoms: C_2  and  N_3 
REMARK       I    between atoms: C_2  and  N_13 
REMARK    1  A    between atoms: N_3  and  C_4 
REMARK    2  A    between atoms: N_7  and  C_10 
REMARK    3  A    between atoms: N_13  and  C_14 
REMARK    4  A    between atoms: C_18  and  C_22 
ROOT
HETATM    1  O   UNL     1       1.932  -0.899  -2.509  1.00  0.00    -0.247 OA
HETATM    2  C   UNL     1       2.796  -0.670  -1.670  1.00  0.00     0.321 C 
HETATM    3  N   UNL     1       2.892  -1.390  -0.496  1.00  0.00    -0.338 N 
HETATM    4  N   UNL     1       3.725   0.343  -1.740  1.00  0.00    -0.306 N 
HETATM    5  H   UNL     1       3.791  -1.438  -0.041  1.00  0.00     0.164 HD
HETATM    6  H   UNL     1       4.312   0.475  -0.931  1.00  0.00     0.171 HD
ENDROOT
BRANCH   3   7
HETATM    7  C   UNL     1       1.914  -2.445  -0.206  1.00  0.00     0.089 C 
HETATM    8  C   UNL     1       1.667  -2.575   1.300  1.00  0.00     0.055 C 
HETATM    9  C   UNL     1       2.266  -3.825   1.926  1.00  0.00     0.275 C 
HETATM   10  N   UNL     1       1.918  -5.039   1.184  1.00  0.00     0.093 N 
HETATM   11  C   UNL     1       2.550  -4.986  -0.136  1.00  0.00     0.275 C 
HETATM   12  C   UNL     1       2.212  -3.749  -0.974  1.00  0.00     0.055 C 
BRANCH  10  13
HETATM   13  C   UNL     1       0.467  -5.313   1.142  1.00  0.00     0.223 A 
HETATM   14  C   UNL     1      -0.252  -5.646   2.425  1.00  0.00     0.038 A 
HETATM   15  C   UNL     1      -0.046  -6.706   1.387  1.00  0.00     0.038 A 
ENDBRANCH  10  13
ENDBRANCH   3   7
BRANCH   4  16
HETATM   16  C   UNL     1       3.825   1.299  -2.779  1.00  0.00     0.067 A 
HETATM   17  C   UNL     1       3.057   1.342  -3.922  1.00  0.00     0.120 A 
HETATM   18  N   UNL     1       3.170   2.292  -4.881  1.00  0.00    -0.353 N 
HETATM   19  C   UNL     1       4.093   3.259  -4.700  1.00  0.00     0.085 A 
ATOM     20  HN  UNL     1       2.578   2.277  -5.711  1.00  0.00     0.166 HD
HETATM   21  N   UNL     1       4.908   3.292  -3.625  1.00  0.00    -0.353 N 
HETATM   22  C   UNL     1       4.750   2.321  -2.697  1.00  0.00     0.120 A 
ATOM     23  HN  UNL     1       5.614   4.020  -3.517  1.00  0.00     0.166 HD
BRANCH  19  24
HETATM   24  C   UNL     1       4.208   4.328  -5.760  1.00  0.00     0.053 A 
HETATM   25  C   UNL     1       4.655   5.733  -5.427  1.00  0.00     0.013 A 
HETATM   26  C   UNL     1       3.216   5.472  -5.758  1.00  0.00     0.013 A 
ENDBRANCH  19  24
ENDBRANCH   4  16
TORSDOF 4
