REMARK  9 active torsions:
REMARK  status: ('A' for Active; 'I' for Inactive)
REMARK    1  A    between atoms: N_1  and  C_2 
REMARK    2  A    between atoms: C_4  and  O_23 
REMARK    3  A    between atoms: C_6  and  O_10 
REMARK    4  A    between atoms: C_9  and  C_17 
REMARK    5  A    between atoms: O_10  and  C_13 
REMARK    6  A    between atoms: C_13  and  C_19 
REMARK    7  A    between atoms: C_14  and  O_16 
REMARK    8  A    between atoms: C_14  and  C_22 
REMARK    9  A    between atoms: O_16  and  C_17 
ROOT
HETATM    1  C   UNL     1      -1.541  -2.474  -0.176  1.00  0.00     0.264 C 
HETATM    2  C   UNL     1      -2.515  -2.513   1.014  1.00  0.00     0.199 C 
HETATM    3  C   UNL     1      -2.615  -4.000   1.367  1.00  0.00     0.196 C 
HETATM    4  O   UNL     1      -0.788  -3.694  -0.124  1.00  0.00    -0.353 OA
HETATM    5  C   UNL     1      -1.711  -4.705   0.345  1.00  0.00     0.180 C 
ENDROOT
BRANCH   5   6
HETATM    6  C   UNL     1      -2.443  -5.359  -0.845  1.00  0.00     0.213 C 
BRANCH   6   7
HETATM    7  O   UNL     1      -3.399  -6.371  -0.486  1.00  0.00    -0.315 OA
BRANCH   7   8
HETATM    8  C   UNL     1      -2.889  -7.511   0.038  1.00  0.00     0.293 C 
HETATM    9  O   UNL     1      -1.704  -7.724   0.238  1.00  0.00    -0.259 OA
BRANCH   8  10
HETATM   10  C   UNL     1      -3.955  -8.500   0.342  1.00  0.00     0.039 A 
HETATM   11  C   UNL     1      -3.577  -9.684   0.996  1.00  0.00     0.017 A 
HETATM   12  C   UNL     1      -4.518 -10.681   1.247  1.00  0.00     0.001 A 
HETATM   13  C   UNL     1      -5.843 -10.501   0.853  1.00  0.00     0.000 A 
HETATM   14  C   UNL     1      -6.231  -9.316   0.225  1.00  0.00     0.001 A 
HETATM   15  C   UNL     1      -5.291  -8.315  -0.029  1.00  0.00     0.017 A 
ENDBRANCH   8  10
ENDBRANCH   7   8
ENDBRANCH   6   7
ENDBRANCH   5   6
BRANCH   3  16
HETATM   16  O   UNL     1      -3.964  -4.467   1.349  1.00  0.00    -0.306 OA
BRANCH  16  17
HETATM   17  C   UNL     1      -4.669  -4.242   2.487  1.00  0.00     0.293 C 
HETATM   18  O   UNL     1      -4.228  -3.792   3.531  1.00  0.00    -0.259 OA
BRANCH  17  19
HETATM   19  C   UNL     1      -6.069  -4.694   2.297  1.00  0.00     0.039 A 
HETATM   20  C   UNL     1      -6.660  -4.751   1.028  1.00  0.00     0.017 A 
HETATM   21  C   UNL     1      -7.980  -5.186   0.890  1.00  0.00     0.001 A 
HETATM   22  C   UNL     1      -8.710  -5.562   2.017  1.00  0.00     0.000 A 
HETATM   23  C   UNL     1      -8.130  -5.495   3.284  1.00  0.00     0.001 A 
HETATM   24  C   UNL     1      -6.813  -5.056   3.427  1.00  0.00     0.017 A 
ENDBRANCH  17  19
ENDBRANCH  16  17
ENDBRANCH   3  16
BRANCH   2  25
HETATM   25  O   UNL     1      -3.778  -1.908   0.732  1.00  0.00    -0.388 OA
HETATM   26  H   UNL     1      -4.055  -2.149  -0.169  1.00  0.00     0.210 HD
ENDBRANCH   2  25
BRANCH   1  27
HETATM   27  N   UNL     1      -0.689  -1.294  -0.179  1.00  0.00    -0.280 N 
HETATM   28  C   UNL     1      -1.230  -0.153  -0.759  1.00  0.00     0.331 A 
HETATM   29  N   UNL     1      -0.483   0.988  -0.643  1.00  0.00    -0.275 N 
HETATM   30  O   UNL     1      -2.300  -0.133  -1.366  1.00  0.00    -0.246 OA
HETATM   31  C   UNL     1       0.767   1.072  -0.104  1.00  0.00     0.250 A 
HETATM   32  H   UNL     1      -0.854   1.818  -1.076  1.00  0.00     0.173 HD
HETATM   33  C   UNL     1       1.275  -0.162   0.523  1.00  0.00     0.092 A 
HETATM   34  O   UNL     1       1.440   2.094  -0.132  1.00  0.00    -0.268 OA
HETATM   35  C   UNL     1       0.531  -1.270   0.469  1.00  0.00     0.104 A 
ENDBRANCH   1  27
TORSDOF 9
