REMARK  5 active torsions:
REMARK  status: ('A' for Active; 'I' for Inactive)
REMARK    1  A    between atoms: O_1  and  C_2 
REMARK    2  A    between atoms: C_4  and  C_17 
REMARK    3  A    between atoms: C_7  and  S_8 
REMARK    4  A    between atoms: S_8  and  C_9 
REMARK    5  A    between atoms: C_9  and  C_10 
ROOT
HETATM    1  C   UNL     1       4.006   6.002  -1.800  1.00  0.00     0.143 A 
HETATM    2  C   UNL     1       4.204   5.699  -3.124  1.00  0.00     0.090 A 
HETATM    3  C   UNL     1       4.712   4.439  -3.386  1.00  0.00     0.122 A 
HETATM    4  N   UNL     1       4.989   3.560  -2.387  1.00  0.00    -0.333 N 
ATOM      5  HN  UNL     1       5.343   2.624  -2.584  1.00  0.00     0.168 HD
HETATM    6  C   UNL     1       4.776   3.979  -1.128  1.00  0.00     0.146 A 
HETATM    7  N   UNL     1       4.274   5.173  -0.792  1.00  0.00    -0.318 N 
ATOM      8  HN  UNL     1       4.106   5.433   0.180  1.00  0.00     0.170 HD
ENDROOT
BRANCH   6   9
HETATM    9  S   UNL     1       5.077   2.842   0.197  1.00  0.00    -0.091 SA
BRANCH   9  10
HETATM   10  C   UNL     1       6.864   2.544  -0.045  1.00  0.00     0.114 C 
BRANCH  10  11
HETATM   11  C   UNL     1       7.801   3.743   0.146  1.00  0.00     0.131 C 
HETATM   12  C   UNL     1       7.686   4.507   1.458  1.00  0.00     0.035 C 
HETATM   13  C   UNL     1       7.987   5.945   1.088  1.00  0.00     0.029 C 
HETATM   14  C   UNL     1       8.203   5.935  -0.410  1.00  0.00     0.168 C 
HETATM   15  O   UNL     1       7.648   4.713  -0.899  1.00  0.00    -0.385 OA
ENDBRANCH  10  11
ENDBRANCH   9  10
ENDBRANCH   6   9
BRANCH   3  16
HETATM   16  C   UNL     1       4.959   4.017  -4.825  1.00  0.00     0.432 C 
HETATM   17  F   UNL     1       4.603   4.982  -5.727  1.00  0.00    -0.165 F 
HETATM   18  F   UNL     1       6.266   3.742  -5.090  1.00  0.00    -0.165 F 
HETATM   19  F   UNL     1       4.254   2.909  -5.187  1.00  0.00    -0.165 F 
ENDBRANCH   3  16
BRANCH   1  20
HETATM   20  O   UNL     1       3.498   7.211  -1.423  1.00  0.00    -0.346 OA
HETATM   21  H   UNL     1       3.285   7.727  -2.213  1.00  0.00     0.219 HD
ENDBRANCH   1  20
TORSDOF 5
