REMARK  4 active torsions:
REMARK  status: ('A' for Active; 'I' for Inactive)
REMARK    1  A    between atoms: C_2  and  C_5 
REMARK    2  A    between atoms: C_7  and  N_8 
REMARK       I    between atoms: N_8  and  C_9 
REMARK       I    between atoms: C_9  and  N_11 
REMARK    3  A    between atoms: N_11  and  C_12 
REMARK    4  A    between atoms: C_16  and  O_17 
ROOT
HETATM    1  N   UNL     1       2.573   4.943   0.243  1.00  0.00    -0.293 N 
HETATM    2  C   UNL     1       1.559   5.453  -0.516  1.00  0.00     0.322 C 
HETATM    3  O   UNL     1       1.361   6.665  -0.542  1.00  0.00    -0.247 OA
HETATM    4  N   UNL     1       0.845   4.560  -1.257  1.00  0.00    -0.336 N 
HETATM    5  H   UNL     1       3.134   5.641   0.707  1.00  0.00     0.172 HD
HETATM    6  H   UNL     1       0.886   3.598  -0.930  1.00  0.00     0.164 HD
ENDROOT
BRANCH   1   7
HETATM    7  C   UNL     1       2.937   3.620   0.373  1.00  0.00     0.132 A 
HETATM    8  C   UNL     1       4.075   3.163   1.073  1.00  0.00     0.086 A 
HETATM    9  C   UNL     1       4.052   1.792   0.923  1.00  0.00     0.087 A 
HETATM   10  O   UNL     1       2.946   1.456   0.204  1.00  0.00    -0.240 OA
HETATM   11  N   UNL     1       2.257   2.588  -0.142  1.00  0.00    -0.245 N 
ATOM     12  HN  UNL     1       1.395   2.636  -0.685  1.00  0.00     0.196 HD
BRANCH   9  13
HETATM   13  C   UNL     1       4.913   0.656   1.389  1.00  0.00     0.000 C 
HETATM   14  C   UNL     1       4.367   0.143   2.732  1.00  0.00     0.021 C 
HETATM   15  C   UNL     1       6.368   1.126   1.575  1.00  0.00     0.021 C 
HETATM   16  C   UNL     1       4.907  -0.495   0.362  1.00  0.00     0.021 C 
ENDBRANCH   9  13
ENDBRANCH   1   7
BRANCH   4  17
HETATM   17  C   UNL     1      -0.212   4.945  -2.161  1.00  0.00     0.114 C 
HETATM   18  C   UNL     1      -0.860   3.725  -2.830  1.00  0.00     0.028 C 
HETATM   19  C   UNL     1      -1.235   4.167  -4.246  1.00  0.00     0.005 C 
HETATM   20  C   UNL     1      -0.853   5.642  -4.348  1.00  0.00     0.034 C 
HETATM   21  C   UNL     1       0.282   5.796  -3.347  1.00  0.00     0.140 C 
BRANCH  21  22
HETATM   22  O   UNL     1       1.475   5.275  -3.944  1.00  0.00    -0.394 OA
HETATM   23  H   UNL     1       1.652   4.408  -3.539  1.00  0.00     0.210 HD
ENDBRANCH  21  22
ENDBRANCH   4  17
TORSDOF 4
