REMARK  5 active torsions:
REMARK  status: ('A' for Active; 'I' for Inactive)
REMARK       I    between atoms: C_2  and  N_4 
REMARK    1  A    between atoms: C_7  and  C_8 
REMARK    2  A    between atoms: C_8  and  N_9 
REMARK    3  A    between atoms: N_9  and  C_10 
REMARK    4  A    between atoms: C_10  and  C_11 
REMARK    5  A    between atoms: C_11  and  N_12 
ROOT
HETATM    1  N   UNL     1       5.556   3.571  -3.761  1.00  0.00     0.085 N 
HETATM    2  H   UNL     1       5.461   4.022  -2.849  1.00  0.00     0.315 HD
ENDROOT
BRANCH   1   3
HETATM    3  C   UNL     1       4.977   2.227  -3.685  1.00  0.00     0.274 C 
BRANCH   3   4
HETATM    4  C   UNL     1       3.468   2.268  -3.384  1.00  0.00     0.016 C 
HETATM    5  C   UNL     1       2.889   0.838  -3.402  1.00  0.00     0.026 C 
HETATM    6  C   UNL     1       2.805   0.252  -4.816  1.00  0.00     0.126 C 
HETATM    7  N   UNL     1       2.103   1.166  -5.713  1.00  0.00    -0.352 N 
HETATM    8  C   UNL     1       1.110   0.665  -6.541  1.00  0.00     0.215 C 
HETATM    9  C   UNL     1       2.628   2.531  -5.769  1.00  0.00     0.126 C 
HETATM   10  C   UNL     1       0.304   1.666  -7.328  1.00  0.00     0.117 C 
HETATM   11  O   UNL     1       0.840  -0.535  -6.611  1.00  0.00    -0.274 OA
HETATM   12  C   UNL     1       2.677   3.144  -4.374  1.00  0.00     0.026 C 
ENDBRANCH   3   4
ENDBRANCH   1   3
BRANCH   1  13
HETATM   13  C   UNL     1       6.984   3.531  -4.123  1.00  0.00     0.291 C 
BRANCH  13  14
HETATM   14  C   UNL     1       7.246   2.986  -5.529  1.00  0.00     0.178 C 
BRANCH  14  15
HETATM   15  N   UNL     1       8.660   2.967  -5.848  1.00  0.00    -0.302 N 
HETATM   16  C   UNL     1       9.353   3.919  -6.538  1.00  0.00     0.118 A 
HETATM   17  C   UNL     1      10.639   3.438  -6.663  1.00  0.00    -0.028 A 
HETATM   18  C   UNL     1      11.788   4.067  -7.347  1.00  0.00     0.051 C 
HETATM   19  C   UNL     1      10.606   2.188  -6.002  1.00  0.00     0.115 A 
HETATM   20  N   UNL     1       9.405   1.908  -5.493  1.00  0.00    -0.310 N 
ATOM     21  HN  UNL     1       9.121   1.086  -4.961  1.00  0.00     0.186 HD
ENDBRANCH  14  15
ENDBRANCH  13  14
ENDBRANCH   1  13
TORSDOF 5
