REMARK  5 active torsions:
REMARK  status: ('A' for Active; 'I' for Inactive)
REMARK    1  A    between atoms: C_2  and  C_5 
REMARK    2  A    between atoms: C_5  and  C_6 
REMARK       I    between atoms: C_6  and  N_8 
REMARK    3  A    between atoms: N_8  and  C_9 
REMARK    4  A    between atoms: C_12  and  C_13 
REMARK    5  A    between atoms: C_13  and  C_14 
REMARK       I    between atoms: C_14  and  N_16 
ROOT
HETATM    1  C   UNL     1       6.731   2.098   1.834  1.00  0.00     0.151 A 
HETATM    2  N   UNL     1       7.587   1.844   0.882  1.00  0.00    -0.339 N 
ATOM      3  HN  UNL     1       7.350   1.433  -0.021  1.00  0.00     0.168 HD
HETATM    4  C   UNL     1       8.867   2.214   1.274  1.00  0.00     0.026 A 
HETATM    5  C   UNL     1       8.934   2.729   2.558  1.00  0.00     0.078 A 
HETATM    6  S   UNL     1       7.359   2.829   3.239  1.00  0.00    -0.064 SA
ENDROOT
BRANCH   1   7
HETATM    7  N   UNL     1       5.379   1.888   1.848  1.00  0.00    -0.307 N 
HETATM    8  C   UNL     1       4.771   1.096   0.899  1.00  0.00     0.224 C 
HETATM    9  O   UNL     1       5.335   0.387   0.072  1.00  0.00    -0.273 OA
HETATM   10  H   UNL     1       4.865   2.256   2.633  1.00  0.00     0.171 HD
BRANCH   8  11
HETATM   11  C   UNL     1       3.251   1.158   0.941  1.00  0.00     0.111 C 
BRANCH  11  12
HETATM   12  C   UNL     1       2.632   2.097  -0.123  1.00  0.00    -0.043 C 
HETATM   13  C   UNL     1       3.078   1.714  -1.546  1.00  0.00     0.015 C 
HETATM   14  C   UNL     1       3.011   3.562   0.149  1.00  0.00     0.015 C 
HETATM   15  C   UNL     1       1.098   1.965  -0.054  1.00  0.00     0.015 C 
ENDBRANCH  11  12
ENDBRANCH   8  11
ENDBRANCH   1   7
BRANCH   4  16
HETATM   16  C   UNL     1       9.975   1.973   0.301  1.00  0.00     0.160 C 
BRANCH  16  17
HETATM   17  C   UNL     1      11.091   2.994   0.395  1.00  0.00     0.221 C 
HETATM   18  O   UNL     1      11.799   3.143   1.386  1.00  0.00    -0.273 OA
HETATM   19  N   UNL     1      11.298   3.759  -0.717  1.00  0.00    -0.370 N 
HETATM   20  H   UNL     1      10.670   3.766  -1.508  1.00  0.00     0.159 HD
HETATM   21  H   UNL     1      12.018   4.469  -0.665  1.00  0.00     0.159 HD
ENDBRANCH  16  17
ENDBRANCH   4  16
TORSDOF 5
