REMARK  5 active torsions:
REMARK  status: ('A' for Active; 'I' for Inactive)
REMARK       I    between atoms: C_2  and  N_3 
REMARK    1  A    between atoms: C_2  and  C_12 
REMARK    2  A    between atoms: N_3  and  C_4 
REMARK    3  A    between atoms: C_4  and  C_5 
REMARK    4  A    between atoms: C_5  and  N_6 
REMARK    5  A    between atoms: N_14  and  C_15 
ROOT
HETATM    1  O   UNL     1       2.136  -1.122   0.680  1.00  0.00    -0.273 OA
HETATM    2  C   UNL     1       2.247  -0.164  -0.079  1.00  0.00     0.223 C 
HETATM    3  N   UNL     1       1.656   1.052   0.192  1.00  0.00    -0.359 N 
HETATM    4  H   UNL     1       1.574   1.738  -0.550  1.00  0.00     0.162 HD
ENDROOT
BRANCH   2   5
HETATM    5  C   UNL     1       2.997  -0.237  -1.389  1.00  0.00     0.104 C 
HETATM    6  C   UNL     1       3.800  -1.530  -1.479  1.00  0.00     0.141 C 
HETATM    7  N   UNL     1       4.932  -1.197  -2.304  1.00  0.00    -0.347 N 
HETATM    8  C   UNL     1       5.156   0.179  -2.319  1.00  0.00     0.221 C 
HETATM    9  O   UNL     1       6.115   0.764  -2.798  1.00  0.00    -0.273 OA
HETATM   10  C   UNL     1       4.055   0.850  -1.540  1.00  0.00     0.118 C 
BRANCH   7  11
HETATM   11  C   UNL     1       6.014  -2.119  -2.481  1.00  0.00     0.087 A 
HETATM   12  C   UNL     1       6.343  -2.658  -3.845  1.00  0.00     0.027 A 
HETATM   13  C   UNL     1       5.816  -3.579  -2.785  1.00  0.00     0.027 A 
ENDBRANCH   7  11
ENDBRANCH   2   5
BRANCH   3  14
HETATM   14  C   UNL     1       0.854   1.241   1.395  1.00  0.00     0.143 C 
BRANCH  14  15
HETATM   15  C   UNL     1       1.684   1.181   2.680  1.00  0.00     0.148 C 
BRANCH  15  16
HETATM   16  N   UNL     1       0.880   1.369   3.868  1.00  0.00    -0.350 N 
HETATM   17  C   UNL     1       0.655   2.550   4.517  1.00  0.00     0.108 A 
HETATM   18  C   UNL     1      -0.122   2.213   5.601  1.00  0.00     0.106 A 
HETATM   19  N   UNL     1      -0.371   0.864   5.622  1.00  0.00    -0.361 N 
HETATM   20  C   UNL     1       0.254   0.380   4.572  1.00  0.00     0.182 A 
ATOM     21  HN  UNL     1      -0.923   0.347   6.306  1.00  0.00     0.166 HD
ENDBRANCH  15  16
ENDBRANCH  14  15
ENDBRANCH   3  14
TORSDOF 5
