REMARK  4 active torsions:
REMARK  status: ('A' for Active; 'I' for Inactive)
REMARK    1  A    between atoms: C_5  and  C_10 
REMARK       I    between atoms: C_10  and  N_12 
REMARK    2  A    between atoms: N_12  and  C_13 
REMARK    3  A    between atoms: C_13  and  C_14 
REMARK    4  A    between atoms: C_14  and  C_15 
ROOT
HETATM    1  C   UNL     1       5.325   2.615  -0.046  1.00  0.00     0.265 C 
HETATM    2  O   UNL     1       6.543   2.542  -0.108  1.00  0.00    -0.266 OA
HETATM    3  N   UNL     1       4.624   3.798   0.015  1.00  0.00    -0.355 N 
HETATM    4  H   UNL     1       3.609   3.748   0.055  1.00  0.00     0.162 HD
ENDROOT
BRANCH   3   5
HETATM    5  C   UNL     1       5.320   5.072   0.099  1.00  0.00     0.131 C 
BRANCH   5   6
HETATM    6  C   UNL     1       5.725   5.627  -1.267  1.00  0.00     0.106 C 
BRANCH   6   7
HETATM    7  C   UNL     1       6.494   6.883  -1.110  1.00  0.00     0.149 A 
HETATM    8  N   UNL     1       6.065   8.120  -0.998  1.00  0.00    -0.327 N 
HETATM    9  C   UNL     1       7.239   8.818  -0.857  1.00  0.00     0.100 A 
ATOM     10  HN  UNL     1       5.107   8.471  -1.012  1.00  0.00     0.169 HD
HETATM   11  C   UNL     1       7.280  10.282  -0.688  1.00  0.00     0.091 C 
HETATM   12  N   UNL     1       8.347   8.067  -0.874  1.00  0.00    -0.248 N 
HETATM   13  O   UNL     1       7.853   6.772  -1.045  1.00  0.00    -0.223 OA
ATOM     14  HN  UNL     1       9.317   8.368  -0.784  1.00  0.00     0.196 HD
ENDBRANCH   6   7
ENDBRANCH   5   6
ENDBRANCH   3   5
BRANCH   1  15
HETATM   15  C   UNL     1       4.497   1.329  -0.027  1.00  0.00     0.094 A 
HETATM   16  N   UNL     1       3.202   1.399  -0.017  1.00  0.00    -0.295 N 
HETATM   17  N   UNL     1       2.476   0.230   0.003  1.00  0.00    -0.265 N 
ATOM     18  HN  UNL     1       2.730   2.303  -0.024  1.00  0.00     0.187 HD
HETATM   19  C   UNL     1       1.029   0.357   0.008  1.00  0.00     0.181 C 
HETATM   20  C   UNL     1       3.002  -1.052   0.013  1.00  0.00     0.238 A 
HETATM   21  C   UNL     1       4.495  -1.201  -0.003  1.00  0.00     0.111 A 
HETATM   22  O   UNL     1       2.296  -2.065   0.031  1.00  0.00    -0.272 OA
HETATM   23  C   UNL     1       5.300   0.068  -0.016  1.00  0.00     0.073 A 
ENDBRANCH   1  15
TORSDOF 4
