REMARK  5 active torsions:
REMARK  status: ('A' for Active; 'I' for Inactive)
REMARK    1  A    between atoms: N_7  and  C_8 
REMARK    2  A    between atoms: C_8  and  C_9 
REMARK       I    between atoms: C_9  and  N_11 
REMARK    3  A    between atoms: N_11  and  C_12 
REMARK    4  A    between atoms: C_12  and  C_18 
REMARK    5  A    between atoms: C_18  and  O_20 
ROOT
HETATM    1  C   UNL     1       1.402  -3.821   1.335  1.00  0.00     0.237 C 
HETATM    2  O   UNL     1       0.848  -4.150   2.379  1.00  0.00    -0.272 OA
HETATM    3  N   UNL     1       0.700  -3.579   0.155  1.00  0.00    -0.341 N 
HETATM    4  H   UNL     1       1.235  -3.698  -0.705  1.00  0.00     0.163 HD
ENDROOT
BRANCH   3   5
HETATM    5  C   UNL     1      -0.785  -3.782   0.083  1.00  0.00     0.118 C 
HETATM    6  C   UNL     1      -1.253  -5.195   0.497  1.00  0.00     0.042 C 
HETATM    7  C   UNL     1      -0.841  -6.276  -0.501  1.00  0.00     0.003 C 
HETATM    8  C   UNL     1      -1.332  -5.958  -1.909  1.00  0.00     0.000 C 
HETATM    9  C   UNL     1      -0.880  -4.575  -2.361  1.00  0.00     0.003 C 
HETATM   10  C   UNL     1      -1.281  -3.494  -1.358  1.00  0.00     0.042 C 
BRANCH   5  11
HETATM   11  C   UNL     1      -1.482  -2.703   0.964  1.00  0.00     0.169 C 
HETATM   12  O   UNL     1      -2.628  -2.765   1.384  1.00  0.00    -0.648 OA
BRANCH  11  13
HETATM   13  O   UNL     1      -0.739  -1.568   1.081  1.00  0.00    -0.775 OA
HETATM   14  H   UNL     1       0.119  -1.700   0.631  1.00  0.00     0.167 HD
ENDBRANCH  11  13
ENDBRANCH   5  11
ENDBRANCH   3   5
BRANCH   1  15
HETATM   15  C   UNL     1       2.914  -3.587   1.271  1.00  0.00     0.235 C 
BRANCH  15  16
HETATM   16  N   UNL     1       3.671  -4.782   0.967  1.00  0.00    -0.303 N 
HETATM   17  C   UNL     1       4.245  -5.637   1.900  1.00  0.00     0.018 A 
HETATM   18  C   UNL     1       4.028  -5.495   3.370  1.00  0.00     0.069 C 
HETATM   19  C   UNL     1       4.991  -6.601   1.337  1.00  0.00     0.080 A 
HETATM   20  S   UNL     1       5.003  -6.494  -0.396  1.00  0.00    -0.039 SA
HETATM   21  C   UNL     1       3.923  -5.098  -0.356  1.00  0.00     0.290 A 
HETATM   22  O   UNL     1       3.480  -4.528  -1.342  1.00  0.00    -0.259 OA
ENDBRANCH  15  16
ENDBRANCH   1  15
TORSDOF 5
