REMARK  6 active torsions:
REMARK  status: ('A' for Active; 'I' for Inactive)
REMARK    1  A    between atoms: N_11  and  C_12 
REMARK    2  A    between atoms: C_12  and  C_13 
REMARK    3  A    between atoms: C_13  and  O_14 
REMARK    4  A    between atoms: C_13  and  C_15 
REMARK    5  A    between atoms: C_18  and  O_19 
REMARK    6  A    between atoms: O_19  and  C_20 
ROOT
HETATM    1  C   UNL     1       3.947  -3.578   0.101  1.00  0.00     0.169 C 
ENDROOT
BRANCH   1   2
HETATM    2  C   UNL     1       2.894  -2.457   0.043  1.00  0.00     0.167 C 
BRANCH   2   3
HETATM    3  N   UNL     1       3.466  -1.126  -0.082  1.00  0.00    -0.332 N 
HETATM    4  C   UNL     1       3.765  -0.475  -1.262  1.00  0.00     0.080 A 
HETATM    5  C   UNL     1       3.639  -1.087  -2.611  1.00  0.00     0.089 C 
HETATM    6  N   UNL     1       4.165   0.758  -1.028  1.00  0.00    -0.344 N 
HETATM    7  C   UNL     1       4.129   0.914   0.333  1.00  0.00     0.060 A 
ATOM      8  HN  UNL     1       4.444   1.454  -1.719  1.00  0.00     0.167 HD
HETATM    9  C   UNL     1       4.445   2.041   1.107  1.00  0.00     0.032 A 
HETATM   10  C   UNL     1       3.701  -0.252   0.959  1.00  0.00     0.062 A 
HETATM   11  C   UNL     1       4.328   1.960   2.499  1.00  0.00     0.002 A 
HETATM   12  C   UNL     1       3.906   0.778   3.109  1.00  0.00     0.002 A 
HETATM   13  C   UNL     1       3.581  -0.354   2.352  1.00  0.00     0.032 A 
ENDBRANCH   2   3
ENDBRANCH   1   2
BRANCH   1  14
HETATM   14  O   UNL     1       4.711  -3.499   1.304  1.00  0.00    -0.389 OA
HETATM   15  H   UNL     1       4.117  -3.660   2.054  1.00  0.00     0.210 HD
ENDBRANCH   1  14
BRANCH   1  16
HETATM   16  C   UNL     1       3.376  -4.986   0.012  1.00  0.00    -0.028 A 
HETATM   17  C   UNL     1       4.185  -6.005  -0.516  1.00  0.00     0.012 A 
HETATM   18  C   UNL     1       3.707  -7.313  -0.635  1.00  0.00     0.037 A 
HETATM   19  C   UNL     1       2.424  -7.643  -0.200  1.00  0.00     0.074 A 
HETATM   20  C   UNL     1       1.611  -6.644   0.336  1.00  0.00     0.037 A 
HETATM   21  C   UNL     1       2.090  -5.329   0.451  1.00  0.00     0.012 A 
BRANCH  19  22
HETATM   22  O   UNL     1       2.069  -8.950  -0.379  1.00  0.00    -0.290 OA
BRANCH  22  23
HETATM   23  C   UNL     1       1.070  -9.445   0.496  1.00  0.00     0.505 C 
HETATM   24  F   UNL     1      -0.149  -9.082   0.026  1.00  0.00    -0.184 F 
HETATM   25  F   UNL     1       1.121 -10.801   0.441  1.00  0.00    -0.184 F 
ENDBRANCH  22  23
ENDBRANCH  19  22
ENDBRANCH   1  16
TORSDOF 6
