REMARK  5 active torsions:
REMARK  status: ('A' for Active; 'I' for Inactive)
REMARK    1  A    between atoms: C_2  and  N_4 
REMARK    2  A    between atoms: C_6  and  C_10 
REMARK       I    between atoms: C_10  and  N_12 
REMARK    3  A    between atoms: N_12  and  C_13 
REMARK    4  A    between atoms: C_13  and  C_14 
REMARK    5  A    between atoms: C_14  and  C_15 
ROOT
HETATM    1  C   UNL     1       1.402   2.607  -3.694  1.00  0.00     0.223 C 
HETATM    2  O   UNL     1       0.538   1.755  -3.884  1.00  0.00    -0.273 OA
HETATM    3  N   UNL     1       1.276   3.888  -4.191  1.00  0.00    -0.360 N 
HETATM    4  H   UNL     1       1.902   4.611  -3.860  1.00  0.00     0.162 HD
ENDROOT
BRANCH   1   5
HETATM    5  C   UNL     1       2.722   2.310  -2.995  1.00  0.00     0.104 A 
HETATM    6  C   UNL     1       2.712   0.903  -2.406  1.00  0.00     0.140 A 
HETATM    7  N   UNL     1       3.025   1.046  -1.004  1.00  0.00    -0.347 N 
HETATM    8  C   UNL     1       3.258   2.360  -0.641  1.00  0.00     0.221 A 
HETATM    9  C   UNL     1       3.033   3.248  -1.832  1.00  0.00     0.118 A 
HETATM   10  O   UNL     1       3.537   2.765   0.477  1.00  0.00    -0.273 OA
BRANCH   7  11
HETATM   11  C   UNL     1       2.656   0.039  -0.003  1.00  0.00     0.079 C 
HETATM   12  C   UNL     1       1.262   0.351   0.555  1.00  0.00     0.032 C 
HETATM   13  C   UNL     1       2.700  -1.397  -0.529  1.00  0.00     0.032 C 
ENDBRANCH   7  11
ENDBRANCH   1   5
BRANCH   3  14
HETATM   14  C   UNL     1       0.034   4.285  -4.845  1.00  0.00     0.128 C 
BRANCH  14  15
HETATM   15  C   UNL     1       0.110   5.693  -5.422  1.00  0.00     0.076 C 
BRANCH  15  16
HETATM   16  C   UNL     1      -1.163   6.093  -6.118  1.00  0.00     0.010 A 
HETATM   17  C   UNL     1      -1.351   5.824  -7.471  1.00  0.00     0.025 A 
HETATM   18  C   UNL     1      -2.529   6.240  -8.083  1.00  0.00     0.003 A 
HETATM   19  C   UNL     1      -3.492   6.904  -7.330  1.00  0.00     0.017 A 
HETATM   20  C   UNL     1      -3.233   7.113  -5.986  1.00  0.00     0.088 A 
HETATM   21  N   UNL     1      -2.099   6.724  -5.369  1.00  0.00    -0.369 N 
ATOM     22  HN  UNL     1      -1.951   6.898  -4.375  1.00  0.00     0.165 HD
ENDBRANCH  15  16
ENDBRANCH  14  15
ENDBRANCH   3  14
TORSDOF 5
