REMARK  6 active torsions:
REMARK  status: ('A' for Active; 'I' for Inactive)
REMARK    1  A    between atoms: C_2  and  C_3 
REMARK    2  A    between atoms: C_2  and  N_11 
REMARK    3  A    between atoms: C_3  and  N_4 
REMARK    4  A    between atoms: N_11  and  C_12 
REMARK    5  A    between atoms: C_12  and  C_13 
REMARK       I    between atoms: C_13  and  N_15 
REMARK    6  A    between atoms: N_15  and  C_16 
ROOT
HETATM    1  N   UNL     1       3.023  -1.237  -0.512  1.00  0.00     0.098 N 
HETATM    2  H   UNL     1       2.551  -1.407  -1.406  1.00  0.00     0.317 HD
ENDROOT
BRANCH   1   3
HETATM    3  C   UNL     1       2.551   0.069   0.005  1.00  0.00     0.236 C 
HETATM    4  C   UNL     1       1.020  -0.033   0.105  1.00  0.00     0.044 C 
BRANCH   3   5
HETATM    5  C   UNL     1       3.171   0.426   1.371  1.00  0.00     0.183 C 
BRANCH   5   6
HETATM    6  N   UNL     1       2.693   1.679   1.922  1.00  0.00    -0.301 N 
HETATM    7  C   UNL     1       2.047   1.854   3.112  1.00  0.00     0.118 A 
HETATM    8  C   UNL     1       1.823   3.206   3.238  1.00  0.00    -0.028 A 
HETATM    9  C   UNL     1       1.165   3.929   4.347  1.00  0.00     0.051 C 
HETATM   10  C   UNL     1       2.379   3.756   2.060  1.00  0.00     0.115 A 
HETATM   11  N   UNL     1       2.913   2.829   1.262  1.00  0.00    -0.310 N 
ATOM     12  HN  UNL     1       3.378   2.962   0.364  1.00  0.00     0.186 HD
ENDBRANCH   5   6
ENDBRANCH   3   5
ENDBRANCH   1   3
BRANCH   1  13
HETATM   13  C   UNL     1       4.485  -1.265  -0.791  1.00  0.00     0.372 C 
BRANCH  13  14
HETATM   14  C   UNL     1       4.871  -2.656  -1.330  1.00  0.00     0.246 C 
HETATM   15  O   UNL     1       5.872  -2.864  -2.004  1.00  0.00    -0.272 OA
HETATM   16  N   UNL     1       3.982  -3.626  -0.929  1.00  0.00    -0.355 N 
HETATM   17  H   UNL     1       3.279  -3.281  -0.277  1.00  0.00     0.162 HD
BRANCH  16  18
HETATM   18  C   UNL     1       4.058  -5.051  -1.221  1.00  0.00     0.088 C 
HETATM   19  C   UNL     1       4.009  -5.361  -2.721  1.00  0.00     0.051 C 
HETATM   20  C   UNL     1       2.634  -5.062  -3.302  1.00  0.00     0.169 C 
HETATM   21  O   UNL     1       1.609  -5.753  -2.585  1.00  0.00    -0.391 OA
HETATM   22  C   UNL     1       1.576  -5.394  -1.205  1.00  0.00     0.169 C 
HETATM   23  C   UNL     1       2.892  -5.762  -0.527  1.00  0.00     0.051 C 
ENDBRANCH  16  18
ENDBRANCH  13  14
ENDBRANCH   1  13
TORSDOF 6
