REMARK  2 active torsions:
REMARK  status: ('A' for Active; 'I' for Inactive)
REMARK    1  A    between atoms: C_6  and  N_7 
REMARK       I    between atoms: N_7  and  C_8 
REMARK    2  A    between atoms: C_8  and  C_10 
ROOT
HETATM    1  N   UNL     1       6.953  -0.249  -0.471  1.00  0.00    -0.311 N 
HETATM    2  C   UNL     1       7.764  -1.376  -0.524  1.00  0.00     0.254 C 
HETATM    3  O   UNL     1       7.431  -2.530  -0.268  1.00  0.00    -0.270 OA
HETATM    4  H   UNL     1       7.376   0.621  -0.771  1.00  0.00     0.170 HD
ENDROOT
BRANCH   1   5
HETATM    5  C   UNL     1       5.670  -0.223   0.084  1.00  0.00     0.109 A 
HETATM    6  N   UNL     1       5.129  -1.354   0.568  1.00  0.00    -0.351 N 
HETATM    7  C   UNL     1       3.910  -1.298   1.150  1.00  0.00     0.115 A 
ATOM      8  HN  UNL     1       5.630  -2.240   0.497  1.00  0.00     0.166 HD
HETATM    9  C   UNL     1       3.177  -0.138   1.281  1.00  0.00     0.071 A 
HETATM   10 CL   UNL     1       1.646  -0.195   2.064  1.00  0.00    -0.081 Cl
HETATM   11  C   UNL     1       3.743   1.026   0.768  1.00  0.00     0.060 A 
HETATM   12  C   UNL     1       5.001   0.988   0.158  1.00  0.00     0.074 A 
HETATM   13 CL   UNL     1       2.940   2.554   0.867  1.00  0.00    -0.082 Cl
ENDBRANCH   1   5
BRANCH   2  14
HETATM   14  C   UNL     1       9.179  -1.045  -1.041  1.00  0.00     0.237 C 
HETATM   15  C   UNL     1      10.216  -2.051  -0.520  1.00  0.00     0.209 C 
HETATM   16  O   UNL     1      10.548  -1.811   0.857  1.00  0.00    -0.386 OA
HETATM   17  C   UNL     1      11.012  -0.471   1.036  1.00  0.00     0.193 C 
HETATM   18  C   UNL     1       9.953   0.523   0.571  1.00  0.00     0.195 C 
HETATM   19  O   UNL     1       9.587   0.313  -0.803  1.00  0.00    -0.372 OA
ENDBRANCH   2  14
TORSDOF 2
