REMARK  5 active torsions:
REMARK  status: ('A' for Active; 'I' for Inactive)
REMARK    1  A    between atoms: C_2  and  C_5 
REMARK    2  A    between atoms: N_10  and  C_11 
REMARK    3  A    between atoms: C_11  and  C_12 
REMARK       I    between atoms: C_12  and  N_14 
REMARK    4  A    between atoms: N_14  and  C_15 
REMARK    5  A    between atoms: C_15  and  C_16 
ROOT
HETATM    1  C   UNL     1       6.705   4.245  -2.829  1.00  0.00     0.063 A 
HETATM    2  C   UNL     1       6.955   5.084  -3.988  1.00  0.00     0.023 A 
HETATM    3  C   UNL     1       6.278   4.902  -5.130  1.00  0.00     0.075 A 
HETATM    4  C   UNL     1       5.247   3.835  -5.230  1.00  0.00     0.247 A 
HETATM    5  O   UNL     1       4.631   3.678  -6.282  1.00  0.00    -0.268 OA
HETATM    6  N   UNL     1       5.040   3.079  -4.083  1.00  0.00    -0.315 N 
HETATM    7  C   UNL     1       5.776   3.279  -2.923  1.00  0.00     0.110 A 
ENDROOT
BRANCH   6   8
HETATM    8  C   UNL     1       3.885   2.179  -4.047  1.00  0.00     0.234 C 
BRANCH   8   9
HETATM    9  C   UNL     1       4.110   0.747  -4.524  1.00  0.00     0.235 C 
HETATM   10  O   UNL     1       3.863  -0.207  -3.784  1.00  0.00    -0.272 OA
HETATM   11  N   UNL     1       4.461   0.573  -5.848  1.00  0.00    -0.357 N 
HETATM   12  H   UNL     1       4.828   1.360  -6.379  1.00  0.00     0.162 HD
BRANCH  11  13
HETATM   13  C   UNL     1       4.603  -0.780  -6.361  1.00  0.00     0.154 C 
BRANCH  13  14
HETATM   14  C   UNL     1       4.921  -0.882  -7.854  1.00  0.00     0.139 C 
HETATM   15  C   UNL     1       4.990  -2.335  -8.318  1.00  0.00     0.035 C 
HETATM   16  C   UNL     1       6.170  -2.394  -9.263  1.00  0.00     0.029 C 
HETATM   17  C   UNL     1       6.682  -0.972  -9.327  1.00  0.00     0.168 C 
HETATM   18  O   UNL     1       6.215  -0.326  -8.139  1.00  0.00    -0.384 OA
ENDBRANCH  13  14
ENDBRANCH  11  13
ENDBRANCH   8   9
ENDBRANCH   6   8
BRANCH   1  19
HETATM   19  C   UNL     1       7.434   4.523  -1.542  1.00  0.00     0.418 C 
HETATM   20  F   UNL     1       8.225   5.625  -1.604  1.00  0.00    -0.166 F 
HETATM   21  F   UNL     1       8.230   3.486  -1.179  1.00  0.00    -0.166 F 
HETATM   22  F   UNL     1       6.566   4.728  -0.515  1.00  0.00    -0.166 F 
ENDBRANCH   1  19
TORSDOF 5
