REMARK  5 active torsions:
REMARK  status: ('A' for Active; 'I' for Inactive)
REMARK    1  A    between atoms: C_2  and  O_3 
REMARK    2  A    between atoms: O_3  and  C_4 
REMARK    3  A    between atoms: C_6  and  N_7 
REMARK       I    between atoms: N_7  and  C_8 
REMARK    4  A    between atoms: C_8  and  C_10 
REMARK    5  A    between atoms: C_10  and  N_11 
ROOT
HETATM    1  N   UNL     1       7.432  -1.404   1.049  1.00  0.00    -0.354 N 
HETATM    2  C   UNL     1       8.498  -1.313   1.927  1.00  0.00     0.237 C 
HETATM    3  O   UNL     1       8.457  -1.761   3.071  1.00  0.00    -0.272 OA
HETATM    4  H   UNL     1       7.548  -1.045   0.106  1.00  0.00     0.162 HD
ENDROOT
BRANCH   1   5
HETATM    5  C   UNL     1       6.179  -2.124   1.404  1.00  0.00     0.097 C 
HETATM    6  C   UNL     1       5.154  -2.159   0.242  1.00  0.00     0.058 C 
HETATM    7  C   UNL     1       4.484  -0.906   0.854  1.00  0.00     0.133 C 
HETATM    8  C   UNL     1       5.114  -1.317   2.229  1.00  0.00    -0.001 C 
HETATM    9  C   UNL     1       5.596  -0.125   3.054  1.00  0.00     0.019 C 
HETATM   10  C   UNL     1       4.242  -2.243   3.092  1.00  0.00     0.019 C 
BRANCH   7  11
HETATM   11  O   UNL     1       3.043  -0.853   0.773  1.00  0.00    -0.385 OA
BRANCH  11  12
HETATM   12  C   UNL     1       2.440   0.322   1.311  1.00  0.00     0.163 C 
HETATM   13  C   UNL     1       0.937   0.221   1.163  1.00  0.00     0.033 C 
ENDBRANCH  11  12
ENDBRANCH   7  11
ENDBRANCH   1   5
BRANCH   2  14
HETATM   14  C   UNL     1       9.732  -0.636   1.383  1.00  0.00     0.249 C 
BRANCH  14  15
HETATM   15  N   UNL     1      10.047   0.565   2.111  1.00  0.00    -0.264 N 
HETATM   16  C   UNL     1      10.345   0.726   3.426  1.00  0.00     0.213 A 
HETATM   17  N   UNL     1      10.679   1.980   3.625  1.00  0.00    -0.281 N 
HETATM   18  N   UNL     1      10.590   2.593   2.397  1.00  0.00    -0.008 NA
ATOM     19  HN  UNL     1      10.949   2.411   4.509  1.00  0.00     0.184 HD
HETATM   20  N   UNL     1      10.210   1.732   1.463  1.00  0.00    -0.005 NA
ENDBRANCH  14  15
ENDBRANCH   2  14
TORSDOF 5
