REMARK  5 active torsions:
REMARK  status: ('A' for Active; 'I' for Inactive)
REMARK    1  A    between atoms: C_2  and  C_3 
REMARK    2  A    between atoms: C_3  and  N_4 
REMARK    3  A    between atoms: C_9  and  N_10 
REMARK       I    between atoms: N_10  and  C_11 
REMARK       I    between atoms: C_11  and  N_13 
REMARK    4  A    between atoms: N_13  and  C_14 
REMARK    5  A    between atoms: C_14  and  C_16 
ROOT
HETATM    1  N   UNL     1       4.701  -1.759   1.944  1.00  0.00    -0.293 N 
HETATM    2  C   UNL     1       3.293  -1.925   2.009  1.00  0.00     0.322 C 
HETATM    3  O   UNL     1       2.556  -1.090   2.498  1.00  0.00    -0.247 OA
HETATM    4  N   UNL     1       2.934  -3.138   1.501  1.00  0.00    -0.338 N 
HETATM    5  H   UNL     1       5.268  -2.559   1.708  1.00  0.00     0.172 HD
HETATM    6  H   UNL     1       3.580  -3.654   0.925  1.00  0.00     0.164 HD
ENDROOT
BRANCH   1   7
HETATM    7  C   UNL     1       5.340  -0.558   2.245  1.00  0.00     0.127 A 
HETATM    8  N   UNL     1       6.684  -0.351   2.474  1.00  0.00    -0.277 N 
HETATM    9  N   UNL     1       7.003   0.948   2.633  1.00  0.00    -0.308 N 
HETATM   10  C   UNL     1       5.830   1.576   2.583  1.00  0.00     0.111 A 
ATOM     11  HN  UNL     1       7.929   1.356   2.762  1.00  0.00     0.186 HD
HETATM   12  C   UNL     1       4.765   0.690   2.343  1.00  0.00     0.068 A 
BRANCH   8  13
HETATM   13  C   UNL     1       7.742  -1.337   2.638  1.00  0.00     0.150 C 
BRANCH  13  14
HETATM   14  C   UNL     1       8.262  -1.380   4.076  1.00  0.00     0.017 C 
HETATM   15  C   UNL     1       9.408  -2.363   4.242  1.00  0.00     0.007 C 
ENDBRANCH  13  14
ENDBRANCH   8  13
ENDBRANCH   1   7
BRANCH   4  16
HETATM   16  C   UNL     1       1.533  -3.554   1.489  1.00  0.00     0.086 C 
HETATM   17  C   UNL     1       0.858  -3.132   0.184  1.00  0.00     0.032 C 
BRANCH  16  18
HETATM   18  C   UNL     1       1.372  -5.061   1.802  1.00  0.00     0.012 C 
HETATM   19  C   UNL     1       2.028  -6.013   0.788  1.00  0.00     0.033 C 
HETATM   20  C   UNL     1       1.834  -7.459   1.240  1.00  0.00     0.168 C 
HETATM   21  O   UNL     1       2.427  -7.645   2.524  1.00  0.00    -0.391 OA
HETATM   22  C   UNL     1       1.785  -6.866   3.531  1.00  0.00     0.168 C 
HETATM   23  C   UNL     1       1.898  -5.381   3.214  1.00  0.00     0.033 C 
ENDBRANCH  16  18
ENDBRANCH   4  16
TORSDOF 5
