REMARK  6 active torsions:
REMARK  status: ('A' for Active; 'I' for Inactive)
REMARK    1  A    between atoms: C_2  and  C_3 
REMARK    2  A    between atoms: C_3  and  C_4 
REMARK    3  A    between atoms: C_4  and  N_5 
REMARK       I    between atoms: N_5  and  C_6 
REMARK    4  A    between atoms: C_6  and  C_8 
REMARK    5  A    between atoms: C_8  and  C_9 
REMARK    6  A    between atoms: C_12  and  C_15 
ROOT
HETATM    1  C   UNL     1       2.730  -0.501   6.179  1.00  0.00     0.160 C 
ENDROOT
BRANCH   1   2
HETATM    2  C   UNL     1       2.367   0.101   4.840  1.00  0.00     0.223 C 
HETATM    3  N   UNL     1       1.165  -0.325   4.302  1.00  0.00    -0.360 N 
HETATM    4  H   UNL     1       0.507  -0.814   4.897  1.00  0.00     0.162 HD
HETATM    5  O   UNL     1       3.095   0.920   4.280  1.00  0.00    -0.273 OA
BRANCH   3   6
HETATM    6  C   UNL     1       0.723   0.275   3.068  1.00  0.00     0.132 C 
BRANCH   6   7
HETATM    7  C   UNL     1      -0.585  -0.238   2.495  1.00  0.00    -0.025 A 
HETATM    8  C   UNL     1      -1.026  -1.676   2.701  1.00  0.00     0.012 A 
HETATM    9  C   UNL     1      -1.740  -0.568   3.425  1.00  0.00     0.012 A 
BRANCH   7  10
HETATM   10  C   UNL     1      -0.956   0.430   1.176  1.00  0.00     0.006 C 
HETATM   11  C   UNL     1       0.052   0.158   0.067  1.00  0.00     0.006 C 
ENDBRANCH   7  10
ENDBRANCH   6   7
ENDBRANCH   3   6
ENDBRANCH   1   2
BRANCH   1  12
HETATM   12  C   UNL     1       2.292   0.368   7.304  1.00  0.00     0.025 A 
HETATM   13  C   UNL     1       2.639   1.689   7.516  1.00  0.00     0.077 A 
HETATM   14  S   UNL     1       1.923   2.264   8.957  1.00  0.00    -0.086 SA
HETATM   15  C   UNL     1       1.222   0.709   9.228  1.00  0.00     0.058 A 
HETATM   16  N   UNL     1       1.476  -0.176   8.282  1.00  0.00    -0.356 N 
ATOM     17  HN  UNL     1       1.119  -1.132   8.273  1.00  0.00     0.166 HD
BRANCH  15  18
HETATM   18  C   UNL     1       0.396   0.411  10.477  1.00  0.00    -0.002 C 
HETATM   19  C   UNL     1      -0.854   1.307  10.535  1.00  0.00     0.021 C 
HETATM   20  C   UNL     1      -0.073  -1.061  10.454  1.00  0.00     0.021 C 
HETATM   21  C   UNL     1       1.242   0.616  11.747  1.00  0.00     0.021 C 
ENDBRANCH  15  18
ENDBRANCH   1  12
TORSDOF 6
