REMARK  2 active torsions:
REMARK  status: ('A' for Active; 'I' for Inactive)
REMARK    1  A    between atoms: C_6  and  N_7 
REMARK       I    between atoms: N_7  and  C_8 
REMARK       I    between atoms: C_8  and  N_10 
REMARK    2  A    between atoms: N_10  and  C_11 
ROOT
HETATM    1  N   UNL     1       6.442   0.503   0.234  1.00  0.00    -0.300 N 
HETATM    2  C   UNL     1       7.554  -0.310   0.202  1.00  0.00     0.321 C 
HETATM    3  O   UNL     1       7.534  -1.528   0.133  1.00  0.00    -0.247 OA
HETATM    4  N   UNL     1       8.730   0.396   0.298  1.00  0.00    -0.334 N 
HETATM    5  H   UNL     1       6.571   1.498   0.339  1.00  0.00     0.171 HD
HETATM    6  H   UNL     1       8.669   1.359   0.009  1.00  0.00     0.165 HD
ENDROOT
BRANCH   1   7
HETATM    7  C   UNL     1       5.127   0.046   0.233  1.00  0.00     0.118 A 
HETATM    8  S   UNL     1       4.712  -1.607   0.154  1.00  0.00     0.006 SA
HETATM    9  N   UNL     1       3.077  -1.404   0.231  1.00  0.00    -0.327 N 
HETATM   10  C   UNL     1       2.807  -0.100   0.307  1.00  0.00     0.036 A 
ATOM     11  HN  UNL     1       2.385  -2.153   0.222  1.00  0.00     0.174 HD
HETATM   12  C   UNL     1       1.374   0.296   0.384  1.00  0.00     0.070 C 
HETATM   13  C   UNL     1       3.952   0.773   0.304  1.00  0.00     0.091 A 
HETATM   14 CL   UNL     1       3.846   2.480   0.383  1.00  0.00    -0.079 Cl
ENDBRANCH   1   7
BRANCH   4  15
HETATM   15  C   UNL     1      10.111  -0.172   0.283  1.00  0.00     0.035 C 
HETATM   16  C   UNL     1      10.968   0.886   1.022  1.00  0.00     0.039 C 
HETATM   17  C   UNL     1      10.635  -0.295  -1.164  1.00  0.00     0.057 C 
HETATM   18  C   UNL     1      10.257  -1.616  -1.814  1.00  0.00     0.170 C 
HETATM   19  O   UNL     1      10.790  -2.686  -1.038  1.00  0.00    -0.391 OA
HETATM   20  C   UNL     1      10.127  -2.788   0.219  1.00  0.00     0.170 C 
HETATM   21  C   UNL     1      10.292  -1.513   1.049  1.00  0.00     0.057 C 
ENDBRANCH   4  15
TORSDOF 2
