REMARK  4 active torsions:
REMARK  status: ('A' for Active; 'I' for Inactive)
REMARK    1  A    between atoms: O_1  and  C_2 
REMARK    2  A    between atoms: C_2  and  O_4 
REMARK    3  A    between atoms: C_10  and  N_21 
REMARK    4  A    between atoms: N_14  and  C_15 
ROOT
HETATM    1  C   UNL     1       2.581  -0.196  -2.390  1.00  0.00     0.278 C 
HETATM    2  O   UNL     1       3.561   0.219  -1.819  1.00  0.00    -0.620 OA
ENDROOT
BRANCH   1   3
HETATM    3  O   UNL     1       1.350  -0.312  -1.877  1.00  0.00    -0.750 OA
HETATM    4  H   UNL     1       1.376   0.012  -0.946  1.00  0.00     0.170 HD
ENDBRANCH   1   3
BRANCH   1   5
HETATM    5  O   UNL     1       2.536  -0.661  -3.633  1.00  0.00    -0.750 OA
HETATM    6  H   UNL     1       1.587  -0.882  -3.727  1.00  0.00     0.170 HD
ENDBRANCH   1   5
TORSDOF 4
