REMARK  9 active torsions:
REMARK  status: ('A' for Active; 'I' for Inactive)
REMARK    1  A    between atoms: O_1  and  C_2 
REMARK    2  A    between atoms: C_2  and  C_3 
REMARK    3  A    between atoms: C_3  and  O_4 
REMARK    4  A    between atoms: O_4  and  C_5 
REMARK    5  A    between atoms: C_5  and  C_6 
REMARK    6  A    between atoms: C_6  and  N_7 
REMARK    7  A    between atoms: N_7  and  C_8 
REMARK    8  A    between atoms: C_11  and  S_15 
REMARK    9  A    between atoms: S_15  and  N_18 
ROOT
HETATM    1  C   UNL     1       8.221   1.185   4.328  1.00  0.00     0.079 A 
HETATM    2  C   UNL     1       8.725   2.488   4.272  1.00  0.00     0.044 A 
HETATM    3  C   UNL     1      10.097   2.709   4.402  1.00  0.00     0.030 A 
HETATM    4  C   UNL     1      10.938   1.610   4.532  1.00  0.00     0.095 A 
HETATM    5  C   UNL     1      10.378   0.347   4.527  1.00  0.00     0.114 A 
HETATM    6  N   UNL     1       9.039   0.121   4.437  1.00  0.00    -0.355 N 
ATOM      7  HN  UNL     1       8.665  -0.828   4.452  1.00  0.00     0.166 HD
ENDROOT
BRANCH   1   8
HETATM    8  N   UNL     1       6.828   1.028   4.269  1.00  0.00    -0.277 NA
HETATM    9  H   UNL     1       6.512   1.205   3.317  1.00  0.00     0.129 HD
BRANCH   8  10
HETATM   10  C   UNL     1       6.329  -0.260   4.753  1.00  0.00     0.120 C 
BRANCH  10  11
HETATM   11  C   UNL     1       4.798  -0.296   4.640  1.00  0.00     0.182 C 
BRANCH  11  12
HETATM   12  O   UNL     1       4.412  -0.310   3.258  1.00  0.00    -0.388 OA
BRANCH  12  13
HETATM   13  C   UNL     1       2.992  -0.385   3.125  1.00  0.00     0.193 C 
BRANCH  13  14
HETATM   14  C   UNL     1       2.615  -0.416   1.648  1.00  0.00     0.190 C 
BRANCH  14  15
HETATM   15  O   UNL     1       1.201  -0.493   1.506  1.00  0.00    -0.399 OA
HETATM   16  H   UNL     1       1.015  -0.519   0.552  1.00  0.00     0.209 HD
ENDBRANCH  14  15
ENDBRANCH  13  14
ENDBRANCH  12  13
ENDBRANCH  11  12
ENDBRANCH  10  11
ENDBRANCH   8  10
ENDBRANCH   1   8
BRANCH   4  17
HETATM   17  S   UNL     1      12.664   1.822   4.842  1.00  0.00     0.262 S 
HETATM   18  O   UNL     1      12.771   2.715   5.975  1.00  0.00    -0.200 OA
HETATM   19  O   UNL     1      13.264   0.501   4.862  1.00  0.00    -0.200 OA
BRANCH  17  20
HETATM   20  N   UNL     1      13.194   2.623   3.458  1.00  0.00    -0.307 N 
HETATM   21  C   UNL     1      13.891   1.876   2.402  1.00  0.00     0.135 C 
HETATM   22  C   UNL     1      15.391   2.020   2.632  1.00  0.00     0.021 C 
HETATM   23  C   UNL     1      15.788   3.494   2.566  1.00  0.00     0.003 C 
HETATM   24  C   UNL     1      14.968   4.346   3.540  1.00  0.00     0.021 C 
HETATM   25  C   UNL     1      13.463   4.073   3.469  1.00  0.00     0.135 C 
ENDBRANCH  17  20
ENDBRANCH   4  17
TORSDOF 9
