REMARK  6 active torsions:
REMARK  status: ('A' for Active; 'I' for Inactive)
REMARK    1  A    between atoms: C_2  and  C_3 
REMARK       I    between atoms: C_2  and  N_10 
REMARK    2  A    between atoms: C_3  and  C_4 
REMARK    3  A    between atoms: C_4  and  C_5 
REMARK    4  A    between atoms: N_10  and  C_11 
REMARK    5  A    between atoms: C_11  and  C_12 
REMARK    6  A    between atoms: C_12  and  C_13 
ROOT
HETATM    1  O   UNL     1       1.063  -0.056   0.276  1.00  0.00    -0.274 OA
HETATM    2  C   UNL     1       2.288  -0.052   0.221  1.00  0.00     0.217 C 
HETATM    3  N   UNL     1       3.097  -0.281   1.312  1.00  0.00    -0.361 N 
HETATM    4  H   UNL     1       4.099  -0.182   1.211  1.00  0.00     0.162 HD
ENDROOT
BRANCH   3   5
HETATM    5  C   UNL     1       2.532  -0.517   2.627  1.00  0.00     0.127 C 
BRANCH   5   6
HETATM    6  C   UNL     1       3.612  -0.781   3.677  1.00  0.00     0.059 C 
BRANCH   6   7
HETATM    7  C   UNL     1       3.024  -1.045   5.034  1.00  0.00    -0.041 A 
HETATM    8  C   UNL     1       2.706  -2.340   5.449  1.00  0.00     0.010 A 
HETATM    9  C   UNL     1       2.122  -2.540   6.696  1.00  0.00     0.018 A 
HETATM   10  C   UNL     1       1.874  -1.433   7.490  1.00  0.00     0.087 A 
HETATM   11  N   UNL     1       2.172  -0.168   7.127  1.00  0.00    -0.375 N 
HETATM   12  C   UNL     1       2.736  -0.002   5.909  1.00  0.00     0.094 A 
ATOM     13  HN  UNL     1       1.981   0.624   7.741  1.00  0.00     0.164 HD
ENDBRANCH   6   7
ENDBRANCH   5   6
ENDBRANCH   3   5
BRANCH   2  14
HETATM   14  C   UNL     1       3.042   0.236  -1.065  1.00  0.00     0.103 C 
BRANCH  14  15
HETATM   15  C   UNL     1       3.888  -0.954  -1.515  1.00  0.00     0.014 C 
BRANCH  15  16
HETATM   16  C   UNL     1       4.664  -0.682  -2.808  1.00  0.00    -0.014 C 
HETATM   17  C   UNL     1       3.784  -0.422  -4.038  1.00  0.00     0.004 C 
HETATM   18  C   UNL     1       4.476  -1.107  -5.218  1.00  0.00     0.000 C 
HETATM   19  C   UNL     1       5.810  -1.611  -4.688  1.00  0.00     0.000 C 
HETATM   20  C   UNL     1       5.540  -1.867  -3.215  1.00  0.00     0.004 C 
ENDBRANCH  15  16
ENDBRANCH  14  15
ENDBRANCH   2  14
TORSDOF 6
