REMARK  5 active torsions:
REMARK  status: ('A' for Active; 'I' for Inactive)
REMARK    1  A    between atoms: O_1  and  C_2 
REMARK    2  A    between atoms: C_2  and  C_3 
REMARK    3  A    between atoms: C_3  and  N_4 
REMARK       I    between atoms: N_4  and  C_5 
REMARK       I    between atoms: C_5  and  N_7 
REMARK    4  A    between atoms: N_7  and  C_8 
REMARK    5  A    between atoms: C_12  and  C_16 
ROOT
HETATM    1  N   UNL     1       4.387   0.013   1.703  1.00  0.00    -0.340 N 
HETATM    2  C   UNL     1       5.201   1.058   2.065  1.00  0.00     0.320 C 
HETATM    3  O   UNL     1       4.806   2.210   2.188  1.00  0.00    -0.247 OA
HETATM    4  N   UNL     1       6.473   0.619   2.368  1.00  0.00    -0.306 N 
HETATM    5  H   UNL     1       4.811  -0.716   1.142  1.00  0.00     0.164 HD
HETATM    6  H   UNL     1       6.494  -0.327   2.722  1.00  0.00     0.171 HD
ENDROOT
BRANCH   1   7
HETATM    7  C   UNL     1       2.956   0.207   1.509  1.00  0.00     0.162 C 
BRANCH   7   8
HETATM    8  C   UNL     1       2.511  -0.003   0.042  1.00  0.00     0.074 C 
HETATM    9  C   UNL     1       0.975   0.008  -0.105  1.00  0.00     0.039 C 
HETATM   10  C   UNL     1       0.225   1.171   0.537  1.00  0.00     0.003 C 
HETATM   11  C   UNL     1       0.416   2.576  -0.032  1.00  0.00     0.000 C 
HETATM   12  C   UNL     1       1.417   2.774  -1.161  1.00  0.00     0.000 C 
HETATM   13  C   UNL     1       2.857   2.433  -0.797  1.00  0.00     0.003 C 
HETATM   14  C   UNL     1       3.189   0.955  -0.947  1.00  0.00     0.039 C 
BRANCH   8  15
HETATM   15  O   UNL     1       2.963  -1.326  -0.347  1.00  0.00    -0.388 OA
HETATM   16  H   UNL     1       2.461  -1.980   0.170  1.00  0.00     0.210 HD
ENDBRANCH   8  15
ENDBRANCH   7   8
ENDBRANCH   1   7
BRANCH   4  17
HETATM   17  C   UNL     1       7.461   1.508   2.839  1.00  0.00     0.067 A 
HETATM   18  C   UNL     1       8.302   1.158   3.871  1.00  0.00     0.120 A 
HETATM   19  N   UNL     1       9.201   1.997   4.430  1.00  0.00    -0.353 N 
HETATM   20  C   UNL     1       9.283   3.245   3.915  1.00  0.00     0.085 A 
ATOM     21  HN  UNL     1       9.792   1.702   5.207  1.00  0.00     0.166 HD
HETATM   22  N   UNL     1       8.555   3.652   2.856  1.00  0.00    -0.353 N 
HETATM   23  C   UNL     1       7.654   2.782   2.350  1.00  0.00     0.120 A 
ATOM     24  HN  UNL     1       8.680   4.581   2.453  1.00  0.00     0.166 HD
BRANCH  20  25
HETATM   25  C   UNL     1      10.168   4.260   4.597  1.00  0.00     0.053 A 
HETATM   26  C   UNL     1      11.392   4.799   3.895  1.00  0.00     0.013 A 
HETATM   27  C   UNL     1      11.549   3.888   5.079  1.00  0.00     0.013 A 
ENDBRANCH  20  25
ENDBRANCH   4  17
TORSDOF 5
