REMARK  6 active torsions:
REMARK  status: ('A' for Active; 'I' for Inactive)
REMARK    1  A    between atoms: C_2  and  C_3 
REMARK    2  A    between atoms: C_7  and  C_8 
REMARK    3  A    between atoms: C_8  and  C_9 
REMARK    4  A    between atoms: C_9  and  N_10 
REMARK       I    between atoms: N_10  and  C_11 
REMARK       I    between atoms: C_11  and  N_13 
REMARK    5  A    between atoms: C_17  and  C_18 
REMARK    6  A    between atoms: C_18  and  O_19 
ROOT
HETATM    1  N   UNL     1       5.884   1.622  -5.966  1.00  0.00    -0.343 N 
HETATM    2  C   UNL     1       6.388   0.584  -6.704  1.00  0.00     0.318 C 
HETATM    3  O   UNL     1       6.344  -0.574  -6.294  1.00  0.00    -0.247 OA
HETATM    4  N   UNL     1       6.945   0.926  -7.921  1.00  0.00    -0.334 N 
HETATM    5  C   UNL     1       7.182   2.280  -8.424  1.00  0.00     0.127 C 
HETATM    6  C   UNL     1       6.566   2.438  -9.812  1.00  0.00     0.020 C 
HETATM    7  C   UNL     1       7.070   1.356 -10.770  1.00  0.00     0.010 C 
HETATM    8  C   UNL     1       6.858  -0.050 -10.179  1.00  0.00     0.027 C 
HETATM    9  C   UNL     1       7.468  -0.139  -8.775  1.00  0.00     0.134 C 
HETATM   10  H   UNL     1       5.462   2.367  -6.507  1.00  0.00     0.164 HD
ENDROOT
BRANCH   1  11
HETATM   11  C   UNL     1       5.199   1.336  -4.715  1.00  0.00     0.131 C 
BRANCH  11  12
HETATM   12  C   UNL     1       4.805   2.593  -3.943  1.00  0.00     0.084 C 
BRANCH  12  13
HETATM   13  C   UNL     1       3.792   3.406  -4.694  1.00  0.00     0.052 A 
HETATM   14  N   UNL     1       4.036   3.997  -5.847  1.00  0.00    -0.363 N 
HETATM   15  C   UNL     1       2.902   4.658  -6.277  1.00  0.00     0.103 A 
ATOM     16  HN  UNL     1       4.926   3.970  -6.345  1.00  0.00     0.165 HD
HETATM   17  C   UNL     1       1.797   4.552  -5.456  1.00  0.00    -0.001 A 
HETATM   18  S   UNL     1       2.199   3.606  -4.084  1.00  0.00    -0.080 SA
BRANCH  17  19
HETATM   19  C   UNL     1       0.427   5.118  -5.641  1.00  0.00     0.043 C 
HETATM   20  C   UNL     1       0.296   6.510  -5.042  1.00  0.00     0.010 C 
ENDBRANCH  17  19
ENDBRANCH  12  13
ENDBRANCH  11  12
ENDBRANCH   1  11
BRANCH   8  21
HETATM   21  C   UNL     1       7.439  -1.139 -11.082  1.00  0.00     0.170 C 
BRANCH  21  22
HETATM   22  O   UNL     1       6.821  -1.114 -12.363  1.00  0.00    -0.400 OA
HETATM   23  H   UNL     1       5.869  -1.261 -12.230  1.00  0.00     0.209 HD
ENDBRANCH  21  22
ENDBRANCH   8  21
TORSDOF 6
