REMARK  4 active torsions:
REMARK  status: ('A' for Active; 'I' for Inactive)
REMARK    1  A    between atoms: C_6  and  C_7 
REMARK    2  A    between atoms: C_7  and  C_8 
REMARK    3  A    between atoms: C_8  and  N_9 
REMARK    4  A    between atoms: N_9  and  C_10 
ROOT
HETATM    1  C   UNL     1       8.156   0.328  -1.511  1.00  0.00     0.278 C 
ENDROOT
BRANCH   1   2
HETATM    2  C   UNL     1       7.130   1.462  -1.630  1.00  0.00     0.117 C 
BRANCH   2   3
HETATM    3  C   UNL     1       7.686   2.831  -1.467  1.00  0.00     0.149 A 
HETATM    4  O   UNL     1       9.033   2.969  -1.288  1.00  0.00    -0.223 OA
HETATM    5  N   UNL     1       9.282   4.335  -1.162  1.00  0.00    -0.248 N 
HETATM    6  C   UNL     1       8.066   4.879  -1.283  1.00  0.00     0.100 A 
ATOM      7  HN  UNL     1      10.175   4.805  -1.014  1.00  0.00     0.196 HD
HETATM    8  C   UNL     1       7.842   6.334  -1.223  1.00  0.00     0.091 C 
HETATM    9  N   UNL     1       7.046   3.982  -1.483  1.00  0.00    -0.327 N 
ATOM     10  HN  UNL     1       6.050   4.161  -1.611  1.00  0.00     0.169 HD
ENDBRANCH   2   3
ENDBRANCH   1   2
BRANCH   1  11
HETATM   11  N   UNL     1       8.739   0.248  -0.168  1.00  0.00     0.089 N 
HETATM   12  H   UNL     1       8.014   0.051   0.522  1.00  0.00     0.316 HD
BRANCH  11  13
HETATM   13  C   UNL     1       9.818  -0.730  -0.065  1.00  0.00     0.228 C 
HETATM   14  C   UNL     1       9.358  -2.187  -0.184  1.00  0.00     0.036 C 
HETATM   15  C   UNL     1      10.347  -3.013   0.644  1.00  0.00     0.003 C 
HETATM   16  C   UNL     1      11.342  -2.018   1.238  1.00  0.00     0.011 C 
HETATM   17  C   UNL     1      10.591  -0.677   1.279  1.00  0.00    -0.017 C 
HETATM   18  C   UNL     1      11.573   0.501   1.330  1.00  0.00     0.017 C 
HETATM   19  C   UNL     1       9.676  -0.614   2.518  1.00  0.00     0.017 C 
ENDBRANCH  11  13
ENDBRANCH   1  11
TORSDOF 4
