REMARK  6 active torsions:
REMARK  status: ('A' for Active; 'I' for Inactive)
REMARK    1  A    between atoms: C_2  and  C_3 
REMARK       I    between atoms: C_2  and  N_19 
REMARK    2  A    between atoms: C_3  and  N_4 
REMARK    3  A    between atoms: C_7  and  C_8 
REMARK    4  A    between atoms: C_8  and  N_9 
REMARK    5  A    between atoms: N_13  and  C_14 
REMARK    6  A    between atoms: N_19  and  C_20 
ROOT
HETATM    1  N   UNL     1       2.186  -0.358   2.343  1.00  0.00    -0.256 N 
HETATM    2  C   UNL     1       1.898  -1.683   2.635  1.00  0.00     0.273 A 
HETATM    3  O   UNL     1       2.382  -2.637   2.035  1.00  0.00    -0.266 OA
HETATM    4  C   UNL     1       0.982  -1.911   3.769  1.00  0.00     0.110 A 
HETATM    5  C   UNL     1       0.514  -0.864   4.453  1.00  0.00     0.123 A 
HETATM    6  N   UNL     1       0.830   0.433   4.111  1.00  0.00    -0.303 N 
HETATM    7  C   UNL     1       1.674   0.741   3.033  1.00  0.00     0.332 A 
HETATM    8  O   UNL     1       1.953   1.895   2.704  1.00  0.00    -0.246 OA
ENDROOT
BRANCH   1   9
HETATM    9  C   UNL     1       3.094  -0.092   1.238  1.00  0.00     0.239 C 
BRANCH   9  10
HETATM   10  C   UNL     1       2.291   0.088  -0.048  1.00  0.00     0.236 C 
HETATM   11  O   UNL     1       1.947  -0.855  -0.753  1.00  0.00    -0.272 OA
HETATM   12  N   UNL     1       1.931   1.395  -0.308  1.00  0.00    -0.355 N 
HETATM   13  H   UNL     1       1.976   2.052   0.469  1.00  0.00     0.162 HD
BRANCH  12  14
HETATM   14  C   UNL     1       1.141   1.754  -1.482  1.00  0.00     0.084 C 
HETATM   15  C   UNL     1       1.444   3.195  -1.910  1.00  0.00     0.025 C 
HETATM   16  C   UNL     1       0.869   4.228  -0.942  1.00  0.00     0.002 C 
HETATM   17  C   UNL     1      -0.623   4.014  -0.708  1.00  0.00     0.000 C 
HETATM   18  C   UNL     1      -0.934   2.586  -0.267  1.00  0.00     0.002 C 
HETATM   19  C   UNL     1      -0.362   1.556  -1.240  1.00  0.00     0.025 C 
ENDBRANCH  12  14
ENDBRANCH   9  10
ENDBRANCH   1   9
BRANCH   4  20
HETATM   20  C   UNL     1       0.584  -3.337   4.111  1.00  0.00    -0.030 C 
BRANCH  20  21
HETATM   21  N   UNL     1       0.253  -4.520   4.395  1.00  0.00    -0.365 N 
ATOM     22  HN2 UNL     1       0.490  -3.553   4.174  1.00  0.00     0.165 HD
ATOM     23  HN1 UNL     1      -0.014  -5.477   4.625  1.00  0.00     0.165 HD
ENDBRANCH  20  21
ENDBRANCH   4  20
BRANCH   6  24
HETATM   24  C   UNL     1       0.332   1.491   4.966  1.00  0.00     0.094 A 
HETATM   25  C   UNL     1      -1.138   1.684   5.258  1.00  0.00     0.028 A 
HETATM   26  C   UNL     1      -0.412   2.678   4.406  1.00  0.00     0.028 A 
ENDBRANCH   6  24
TORSDOF 6
