REMARK  4 active torsions:
REMARK  status: ('A' for Active; 'I' for Inactive)
REMARK    1  A    between atoms: C_2  and  C_5 
REMARK    2  A    between atoms: N_10  and  C_11 
REMARK    3  A    between atoms: C_11  and  C_12 
REMARK       I    between atoms: C_12  and  N_14 
REMARK    4  A    between atoms: N_14  and  C_15 
ROOT
HETATM    1  C   UNL     1       3.458   1.370  -4.489  1.00  0.00     0.234 C 
ENDROOT
BRANCH   1   2
HETATM    2  N   UNL     1       4.598   1.707  -3.642  1.00  0.00    -0.315 N 
HETATM    3  C   UNL     1       5.829   1.879  -4.260  1.00  0.00     0.247 A 
HETATM    4  C   UNL     1       6.910   2.450  -3.403  1.00  0.00     0.075 A 
HETATM    5  O   UNL     1       6.052   1.617  -5.440  1.00  0.00    -0.268 OA
HETATM    6  C   UNL     1       6.667   2.745  -2.118  1.00  0.00     0.023 A 
HETATM    7  C   UNL     1       5.366   2.506  -1.527  1.00  0.00     0.063 A 
HETATM    8  C   UNL     1       4.393   1.985  -2.298  1.00  0.00     0.110 A 
BRANCH   7   9
HETATM    9  C   UNL     1       5.105   2.918  -0.102  1.00  0.00     0.418 C 
HETATM   10  F   UNL     1       6.137   3.612   0.446  1.00  0.00    -0.166 F 
HETATM   11  F   UNL     1       4.875   1.852   0.704  1.00  0.00    -0.166 F 
HETATM   12  F   UNL     1       4.011   3.721  -0.013  1.00  0.00    -0.166 F 
ENDBRANCH   7   9
ENDBRANCH   1   2
BRANCH   1  13
HETATM   13  C   UNL     1       3.302  -0.125  -4.753  1.00  0.00     0.236 C 
HETATM   14  O   UNL     1       2.671  -0.858  -3.995  1.00  0.00    -0.272 OA
HETATM   15  N   UNL     1       3.934  -0.588  -5.893  1.00  0.00    -0.354 N 
HETATM   16  H   UNL     1       4.642   0.022  -6.304  1.00  0.00     0.162 HD
BRANCH  15  17
HETATM   17  C   UNL     1       3.891  -1.986  -6.314  1.00  0.00     0.099 C 
HETATM   18  C   UNL     1       2.469  -2.472  -6.671  1.00  0.00     0.041 C 
HETATM   19  C   UNL     1       2.353  -3.975  -6.431  1.00  0.00     0.142 C 
HETATM   20  S   UNL     1       3.926  -4.533  -5.821  1.00  0.00     0.146 S 
HETATM   21  O   UNL     1       3.725  -5.379  -4.665  1.00  0.00    -0.228 OA
HETATM   22  O   UNL     1       4.728  -4.953  -6.953  1.00  0.00    -0.228 OA
HETATM   23  C   UNL     1       4.500  -2.943  -5.298  1.00  0.00     0.165 C 
ENDBRANCH  15  17
ENDBRANCH   1  13
TORSDOF 4
