REMARK  3 active torsions:
REMARK  status: ('A' for Active; 'I' for Inactive)
REMARK    1  A    between atoms: C_7  and  N_8 
REMARK       I    between atoms: N_8  and  C_9 
REMARK       I    between atoms: C_9  and  N_11 
REMARK    2  A    between atoms: N_11  and  C_12 
REMARK    3  A    between atoms: C_15  and  O_16 
ROOT
HETATM    1  N   UNL     1       3.278  -3.812  -2.890  1.00  0.00    -0.307 N 
HETATM    2  C   UNL     1       4.186  -4.528  -2.140  1.00  0.00     0.321 C 
HETATM    3  O   UNL     1       5.388  -4.308  -2.060  1.00  0.00    -0.247 OA
HETATM    4  N   UNL     1       3.592  -5.553  -1.435  1.00  0.00    -0.338 N 
HETATM    5  H   UNL     1       2.298  -3.979  -2.705  1.00  0.00     0.170 HD
HETATM    6  H   UNL     1       2.762  -5.958  -1.845  1.00  0.00     0.164 HD
ENDROOT
BRANCH   1   7
HETATM    7  C   UNL     1       3.576  -2.705  -3.733  1.00  0.00     0.061 A 
HETATM    8  C   UNL     1       4.889  -2.342  -4.036  1.00  0.00     0.048 A 
HETATM    9  C   UNL     1       5.120  -1.243  -4.843  1.00  0.00     0.090 A 
HETATM   10  N   UNL     1       4.140  -0.489  -5.372  1.00  0.00    -0.368 N 
HETATM   11  C   UNL     1       2.858  -0.841  -5.094  1.00  0.00     0.029 A 
ATOM     12  HN  UNL     1       4.352   0.317  -5.960  1.00  0.00     0.165 HD
HETATM   13  C   UNL     1       1.817   0.054  -5.700  1.00  0.00     0.070 C 
HETATM   14  C   UNL     1       2.534  -1.945  -4.291  1.00  0.00     0.083 A 
HETATM   15 CL   UNL     1       0.883  -2.369  -3.980  1.00  0.00    -0.080 Cl
ENDBRANCH   1   7
BRANCH   4  16
HETATM   16  C   UNL     1       4.433  -6.438  -0.633  1.00  0.00     0.086 C 
HETATM   17  C   UNL     1       3.699  -6.908   0.627  1.00  0.00     0.028 C 
HETATM   18  C   UNL     1       4.561  -7.872   1.441  1.00  0.00     0.034 C 
HETATM   19  C   UNL     1       5.026  -9.054   0.593  1.00  0.00     0.118 C 
HETATM   20  C   UNL     1       5.774  -8.586  -0.654  1.00  0.00     0.034 C 
HETATM   21  C   UNL     1       4.931  -7.619  -1.478  1.00  0.00     0.028 C 
BRANCH  19  22
HETATM   22  O   UNL     1       5.865  -9.901   1.368  1.00  0.00    -0.396 OA
HETATM   23  H   UNL     1       6.695  -9.428   1.548  1.00  0.00     0.210 HD
ENDBRANCH  19  22
ENDBRANCH   4  16
TORSDOF 3
