REMARK  3 active torsions:
REMARK  status: ('A' for Active; 'I' for Inactive)
REMARK    1  A    between atoms: C_2  and  C_4 
REMARK       I    between atoms: N_10  and  C_11 
REMARK       I    between atoms: C_11  and  N_13 
REMARK    2  A    between atoms: N_13  and  C_14 
REMARK    3  A    between atoms: C_14  and  C_15 
ROOT
HETATM    1  C   UNL     1       6.350  -2.173  -5.586  1.00  0.00     0.073 A 
HETATM    2  N   UNL     1       6.695  -3.421  -5.831  1.00  0.00    -0.296 N 
ATOM      3  HN  UNL     1       7.357  -3.697  -6.556  1.00  0.00     0.187 HD
HETATM    4  N   UNL     1       6.060  -4.305  -4.997  1.00  0.00    -0.279 N 
ATOM      5  HN  UNL     1       6.184  -5.317  -5.036  1.00  0.00     0.189 HD
HETATM    6  C   UNL     1       5.276  -3.694  -4.145  1.00  0.00     0.169 A 
HETATM    7  N   UNL     1       4.466  -4.252  -3.199  1.00  0.00    -0.288 N 
HETATM    8  C   UNL     1       4.206  -5.585  -3.088  1.00  0.00     0.322 C 
HETATM    9  O   UNL     1       3.439  -5.982  -2.213  1.00  0.00    -0.247 OA
HETATM   10  N   UNL     1       4.764  -6.413  -4.015  1.00  0.00    -0.340 N 
HETATM   11  S   UNL     1       5.260  -1.996  -4.261  1.00  0.00    -0.037 SA
HETATM   12  H   UNL     1       3.962  -3.648  -2.566  1.00  0.00     0.172 HD
HETATM   13  H   UNL     1       5.624  -6.095  -4.458  1.00  0.00     0.164 HD
ENDROOT
BRANCH  10  14
HETATM   14  C   UNL     1       4.548  -7.845  -3.989  1.00  0.00     0.156 C 
BRANCH  14  15
HETATM   15  C   UNL     1       5.188  -8.550  -5.186  1.00  0.00     0.139 C 
HETATM   16  C   UNL     1       4.896 -10.043  -5.202  1.00  0.00     0.035 C 
HETATM   17  C   UNL     1       6.182 -10.688  -5.674  1.00  0.00     0.029 C 
HETATM   18  C   UNL     1       7.134  -9.535  -5.905  1.00  0.00     0.168 C 
HETATM   19  O   UNL     1       6.622  -8.444  -5.134  1.00  0.00    -0.384 OA
ENDBRANCH  14  15
ENDBRANCH  10  14
BRANCH   1  20
HETATM   20  C   UNL     1       6.858  -0.999  -6.368  1.00  0.00     0.036 C 
HETATM   21  C   UNL     1       8.352  -0.809  -6.103  1.00  0.00     0.016 C 
HETATM   22  C   UNL     1       6.606  -1.215  -7.864  1.00  0.00     0.016 C 
ENDBRANCH   1  20
TORSDOF 3
