REMARK  5 active torsions:
REMARK  status: ('A' for Active; 'I' for Inactive)
REMARK    1  A    between atoms: C_8  and  C_9 
REMARK    2  A    between atoms: C_9  and  C_10 
REMARK       I    between atoms: C_10  and  N_12 
REMARK    3  A    between atoms: N_12  and  S_13 
REMARK    4  A    between atoms: S_13  and  C_16 
REMARK    5  A    between atoms: C_16  and  C_17 
ROOT
HETATM    1  C   UNL     1       1.738   3.035   0.141  1.00  0.00     0.235 C 
HETATM    2  O   UNL     1       0.997   2.081   0.326  1.00  0.00    -0.272 OA
HETATM    3  N   UNL     1       1.259   4.367   0.037  1.00  0.00    -0.254 N 
HETATM    4  H   UNL     1       1.889   5.154  -0.062  1.00  0.00     0.181 HD
ENDROOT
BRANCH   1   5
HETATM    5  C   UNL     1       3.233   2.827   0.008  1.00  0.00     0.147 C 
BRANCH   5   6
HETATM    6  C   UNL     1       3.990   2.759   1.293  1.00  0.00     0.006 A 
HETATM    7  C   UNL     1       3.585   2.397   2.617  1.00  0.00     0.038 A 
HETATM    8  C   UNL     1       2.258   1.985   3.142  1.00  0.00     0.071 C 
HETATM    9  N   UNL     1       4.617   2.442   3.469  1.00  0.00    -0.265 N 
HETATM   10  O   UNL     1       5.716   2.790   2.724  1.00  0.00    -0.242 OA
ATOM     11  HN  UNL     1       4.592   2.255   4.471  1.00  0.00     0.194 HD
HETATM   12  C   UNL     1       5.351   2.966   1.431  1.00  0.00     0.081 A 
HETATM   13  C   UNL     1       6.446   3.298   0.497  1.00  0.00     0.079 C 
ENDBRANCH   5   6
ENDBRANCH   1   5
BRANCH   3  14
HETATM   14  S   UNL     1      -0.391   4.651   0.116  1.00  0.00     0.233 S 
HETATM   15  O   UNL     1      -0.983   3.960  -1.012  1.00  0.00    -0.206 OA
HETATM   16  O   UNL     1      -0.792   4.392   1.480  1.00  0.00    -0.206 OA
BRANCH  14  17
HETATM   17  C   UNL     1      -0.578   6.424  -0.191  1.00  0.00     0.168 C 
BRANCH  17  18
HETATM   18  C   UNL     1      -2.067   6.670  -0.116  1.00  0.00     0.001 A 
HETATM   19  C   UNL     1      -2.653   8.053  -0.274  1.00  0.00     0.006 A 
HETATM   20  C   UNL     1      -2.665   7.387   1.071  1.00  0.00     0.006 A 
ENDBRANCH  17  18
ENDBRANCH  14  17
ENDBRANCH   3  14
TORSDOF 5
