REMARK  4 active torsions:
REMARK  status: ('A' for Active; 'I' for Inactive)
REMARK    1  A    between atoms: C_2  and  C_3 
REMARK    2  A    between atoms: C_2  and  N_10 
REMARK    3  A    between atoms: C_3  and  N_4 
REMARK       I    between atoms: N_10  and  C_11 
REMARK       I    between atoms: C_11  and  N_13 
REMARK    4  A    between atoms: N_13  and  C_14 
ROOT
HETATM    1  C   UNL     1       1.104  -0.115  -0.260  1.00  0.00     0.034 C 
HETATM    2  C   UNL     1       2.627  -0.100  -0.120  1.00  0.00     0.102 C 
ENDROOT
BRANCH   2   3
HETATM    3  C   UNL     1       3.107  -0.697   1.216  1.00  0.00     0.172 C 
BRANCH   3   4
HETATM    4  N   UNL     1       2.656   0.052   2.373  1.00  0.00    -0.302 N 
HETATM    5  C   UNL     1       3.310   1.081   2.990  1.00  0.00     0.111 A 
HETATM    6  C   UNL     1       2.489   1.494   4.013  1.00  0.00     0.037 A 
HETATM    7  C   UNL     1       1.373   0.640   3.942  1.00  0.00     0.108 A 
HETATM    8  N   UNL     1       1.479  -0.253   2.954  1.00  0.00    -0.310 N 
ATOM      9  HN  UNL     1       0.823  -0.992   2.699  1.00  0.00     0.186 HD
ENDBRANCH   3   4
ENDBRANCH   2   3
BRANCH   2  10
HETATM   10  N   UNL     1       3.230  -0.816  -1.252  1.00  0.00    -0.337 N 
HETATM   11  C   UNL     1       4.517  -0.538  -1.641  1.00  0.00     0.316 C 
HETATM   12  O   UNL     1       5.236   0.262  -1.056  1.00  0.00    -0.247 OA
HETATM   13  N   UNL     1       4.893  -1.261  -2.749  1.00  0.00    -0.339 N 
HETATM   14  H   UNL     1       4.392  -2.126  -2.911  1.00  0.00     0.164 HD
HETATM   15  H   UNL     1       2.615  -1.194  -1.959  1.00  0.00     0.164 HD
BRANCH  13  16
HETATM   16  C   UNL     1       6.211  -1.143  -3.288  1.00  0.00     0.086 A 
HETATM   17  C   UNL     1       6.459  -0.260  -4.480  1.00  0.00     0.027 A 
HETATM   18  C   UNL     1       6.581  -1.749  -4.614  1.00  0.00     0.027 A 
ENDBRANCH  13  16
ENDBRANCH   2  10
TORSDOF 4
