REMARK  6 active torsions:
REMARK  status: ('A' for Active; 'I' for Inactive)
REMARK    1  A    between atoms: C_2  and  N_4 
REMARK       I    between atoms: N_4  and  C_5 
REMARK    2  A    between atoms: C_5  and  C_7 
REMARK    3  A    between atoms: C_7  and  N_8 
REMARK    4  A    between atoms: C_11  and  C_12 
REMARK       I    between atoms: C_12  and  N_14 
REMARK    5  A    between atoms: N_14  and  C_16 
REMARK    6  A    between atoms: C_16  and  C_17 
ROOT
HETATM    1  N   UNL     1       6.236  -1.111  -2.837  1.00  0.00    -0.309 N 
HETATM    2  C   UNL     1       6.769   0.209  -2.978  1.00  0.00     0.028 A 
HETATM    3  C   UNL     1       5.708   1.272  -3.000  1.00  0.00     0.069 C 
HETATM    4  C   UNL     1       8.130   0.445  -3.070  1.00  0.00     0.060 A 
HETATM    5  C   UNL     1       8.996  -0.816  -2.981  1.00  0.00    -0.039 A 
HETATM    6  C   UNL     1      10.511  -0.875  -3.012  1.00  0.00     0.049 C 
HETATM    7  C   UNL     1       8.448  -2.032  -2.852  1.00  0.00     0.082 A 
HETATM    8  C   UNL     1       7.015  -2.245  -2.836  1.00  0.00     0.248 A 
HETATM    9  O   UNL     1       6.586  -3.398  -2.850  1.00  0.00    -0.268 OA
ENDROOT
BRANCH   4  10
HETATM   10  C   UNL     1       8.955   1.811  -3.181  1.00  0.00     0.255 C 
HETATM   11  O   UNL     1      10.159   1.726  -2.888  1.00  0.00    -0.267 OA
HETATM   12  N   UNL     1       8.538   3.084  -3.583  1.00  0.00    -0.352 N 
HETATM   13  C   UNL     1       7.203   3.620  -3.697  1.00  0.00     0.152 C 
BRANCH  12  14
HETATM   14  C   UNL     1       9.564   4.139  -3.734  1.00  0.00     0.130 C 
BRANCH  14  15
HETATM   15  C   UNL     1       9.643   4.493  -5.219  1.00  0.00     0.004 C 
HETATM   16  C   UNL     1      10.312   3.465  -6.168  1.00  0.00     0.006 C 
HETATM   17  C   UNL     1      10.896   4.665  -6.939  1.00  0.00     0.001 C 
HETATM   18  C   UNL     1      10.771   5.474  -5.631  1.00  0.00     0.006 C 
ENDBRANCH  14  15
ENDBRANCH  12  14
ENDBRANCH   4  10
BRANCH   1  19
HETATM   19  C   UNL     1       4.787  -1.394  -2.767  1.00  0.00     0.234 C 
BRANCH  19  20
HETATM   20  C   UNL     1       4.158  -1.405  -4.160  1.00  0.00     0.236 C 
HETATM   21  N   UNL     1       4.516  -2.507  -4.907  1.00  0.00    -0.356 N 
HETATM   22  H   UNL     1       5.240  -3.123  -4.535  1.00  0.00     0.162 HD
HETATM   23  O   UNL     1       3.416  -0.522  -4.559  1.00  0.00    -0.272 OA
BRANCH  21  24
HETATM   24  C   UNL     1       4.071  -2.708  -6.281  1.00  0.00     0.076 C 
HETATM   25  C   UNL     1       4.961  -1.963  -7.258  1.00  0.00     0.032 C 
HETATM   26  C   UNL     1       4.043  -4.210  -6.587  1.00  0.00     0.032 C 
ENDBRANCH  21  24
ENDBRANCH  19  20
ENDBRANCH   1  19
TORSDOF 6
