REMARK  3 active torsions:
REMARK  status: ('A' for Active; 'I' for Inactive)
REMARK    1  A    between atoms: N_5  and  C_6 
REMARK    2  A    between atoms: C_6  and  C_7 
REMARK       I    between atoms: C_7  and  N_9 
REMARK    3  A    between atoms: N_9  and  C_10 
ROOT
HETATM    1  C   UNL     1       7.154   1.392  -0.674  1.00  0.00     0.236 C 
HETATM    2  O   UNL     1       6.493   2.394  -0.410  1.00  0.00    -0.272 OA
HETATM    3  N   UNL     1       8.522   1.421  -0.897  1.00  0.00    -0.355 N 
HETATM    4  H   UNL     1       9.021   0.550  -1.035  1.00  0.00     0.162 HD
ENDROOT
BRANCH   1   5
HETATM    5  C   UNL     1       6.512   0.010  -0.817  1.00  0.00     0.234 C 
BRANCH   5   6
HETATM    6  N   UNL     1       5.813  -0.444   0.383  1.00  0.00    -0.316 N 
HETATM    7  C   UNL     1       4.476  -0.139   0.563  1.00  0.00     0.095 A 
HETATM    8  C   UNL     1       3.776  -0.656   1.582  1.00  0.00     0.024 A 
HETATM    9  C   UNL     1       4.405  -1.572   2.510  1.00  0.00    -0.055 A 
HETATM   10  C   UNL     1       3.553  -2.244   3.544  1.00  0.00     0.048 C 
HETATM   11  C   UNL     1       5.720  -1.823   2.397  1.00  0.00     0.081 A 
HETATM   12  C   UNL     1       6.521  -1.222   1.294  1.00  0.00     0.248 A 
HETATM   13  O   UNL     1       7.721  -1.471   1.208  1.00  0.00    -0.268 OA
ENDBRANCH   5   6
ENDBRANCH   1   5
BRANCH   3  14
HETATM   14  C   UNL     1       9.286   2.670  -0.836  1.00  0.00     0.084 C 
HETATM   15  C   UNL     1       9.415   3.274  -2.243  1.00  0.00     0.025 C 
HETATM   16  C   UNL     1       9.984   4.694  -2.337  1.00  0.00     0.002 C 
HETATM   17  C   UNL     1       9.431   5.682  -1.308  1.00  0.00     0.000 C 
HETATM   18  C   UNL     1      10.352   5.956  -0.114  1.00  0.00     0.000 C 
HETATM   19  C   UNL     1      10.616   4.803   0.859  1.00  0.00     0.000 C 
HETATM   20  C   UNL     1      11.437   3.650   0.275  1.00  0.00     0.002 C 
HETATM   21  C   UNL     1      10.630   2.416  -0.142  1.00  0.00     0.025 C 
ENDBRANCH   3  14
TORSDOF 3
