REMARK  4 active torsions:
REMARK  status: ('A' for Active; 'I' for Inactive)
REMARK    1  A    between atoms: C_2  and  N_3 
REMARK    2  A    between atoms: C_5  and  N_6 
REMARK       I    between atoms: N_6  and  C_7 
REMARK       I    between atoms: C_7  and  N_9 
REMARK    3  A    between atoms: N_9  and  C_10 
REMARK    4  A    between atoms: C_13  and  O_14 
ROOT
HETATM    1  N   UNL     1       3.263   4.422  -2.017  1.00  0.00    -0.306 N 
HETATM    2  C   UNL     1       2.490   5.299  -1.287  1.00  0.00     0.321 C 
HETATM    3  O   UNL     1       1.755   5.003  -0.352  1.00  0.00    -0.247 OA
HETATM    4  N   UNL     1       2.641   6.608  -1.696  1.00  0.00    -0.338 N 
HETATM    5  H   UNL     1       3.868   4.784  -2.739  1.00  0.00     0.171 HD
HETATM    6  H   UNL     1       2.917   6.759  -2.655  1.00  0.00     0.164 HD
ENDROOT
BRANCH   1   7
HETATM    7  C   UNL     1       3.315   3.060  -1.769  1.00  0.00     0.070 A 
HETATM    8  C   UNL     1       2.634   2.361  -0.802  1.00  0.00     0.141 A 
HETATM    9  N   UNL     1       2.982   1.053  -0.941  1.00  0.00    -0.302 N 
HETATM   10  N   UNL     1       3.868   0.842  -1.934  1.00  0.00    -0.308 N 
HETATM   11  C   UNL     1       4.068   2.066  -2.436  1.00  0.00     0.138 A 
ATOM     12  HN  UNL     1       4.286  -0.040  -2.232  1.00  0.00     0.186 HD
BRANCH   9  13
HETATM   13  C   UNL     1       2.457  -0.045  -0.155  1.00  0.00     0.143 C 
HETATM   14  C   UNL     1       3.253  -0.278   1.116  1.00  0.00     0.028 C 
ENDBRANCH   9  13
ENDBRANCH   1   7
BRANCH   4  15
HETATM   15  C   UNL     1       1.848   7.643  -1.035  1.00  0.00     0.086 C 
HETATM   16  C   UNL     1       0.461   7.777  -1.678  1.00  0.00     0.028 C 
HETATM   17  C   UNL     1       0.505   8.498  -3.027  1.00  0.00     0.034 C 
HETATM   18  C   UNL     1       1.238   9.836  -2.955  1.00  0.00     0.118 C 
HETATM   19  C   UNL     1       2.625   9.701  -2.329  1.00  0.00     0.034 C 
HETATM   20  C   UNL     1       2.594   8.978  -0.984  1.00  0.00     0.028 C 
BRANCH  18  21
HETATM   21  O   UNL     1       0.463  10.785  -2.227  1.00  0.00    -0.396 OA
HETATM   22  H   UNL     1       0.309  10.455  -1.327  1.00  0.00     0.210 HD
ENDBRANCH  18  21
ENDBRANCH   4  15
TORSDOF 4
