REMARK  4 active torsions:
REMARK  status: ('A' for Active; 'I' for Inactive)
REMARK    1  A    between atoms: C_2  and  C_3 
REMARK    2  A    between atoms: C_3  and  N_5 
REMARK       I    between atoms: N_5  and  C_6 
REMARK    3  A    between atoms: C_6  and  C_8 
REMARK    4  A    between atoms: C_8  and  N_9 
ROOT
HETATM    1  N   UNL     1       7.358   2.974  -2.203  1.00  0.00    -0.246 N 
HETATM    2  N   UNL     1       7.531   4.366  -2.152  1.00  0.00    -0.261 N 
HETATM    3  C   UNL     1       7.798   5.114  -3.266  1.00  0.00     0.260 A 
HETATM    4  O   UNL     1       7.863   6.337  -3.245  1.00  0.00    -0.267 OA
HETATM    5  C   UNL     1       8.038   4.365  -4.512  1.00  0.00     0.081 A 
HETATM    6  C   UNL     1       7.921   3.036  -4.555  1.00  0.00     0.081 A 
HETATM    7  C   UNL     1       7.511   2.257  -3.369  1.00  0.00     0.262 A 
HETATM    8  O   UNL     1       7.321   1.048  -3.467  1.00  0.00    -0.267 OA
HETATM    9  H   UNL     1       7.268   4.872  -1.315  1.00  0.00     0.190 HD
ENDROOT
BRANCH   1  10
HETATM   10  C   UNL     1       6.719   2.372  -1.045  1.00  0.00     0.255 C 
BRANCH  10  11
HETATM   11  C   UNL     1       5.194   2.413  -1.187  1.00  0.00     0.237 C 
HETATM   12  N   UNL     1       4.533   1.405  -0.505  1.00  0.00    -0.355 N 
HETATM   13  H   UNL     1       5.065   0.593  -0.218  1.00  0.00     0.162 HD
HETATM   14  O   UNL     1       4.601   3.306  -1.788  1.00  0.00    -0.272 OA
BRANCH  12  15
HETATM   15  C   UNL     1       3.078   1.276  -0.550  1.00  0.00     0.080 C 
HETATM   16  C   UNL     1       2.589   0.688   0.770  1.00  0.00     0.032 C 
BRANCH  15  17
HETATM   17  C   UNL     1       2.655   0.432  -1.767  1.00  0.00     0.020 C 
HETATM   18  C   UNL     1       1.146   0.337  -1.943  1.00  0.00     0.007 C 
ENDBRANCH  15  17
ENDBRANCH  12  15
ENDBRANCH  10  11
ENDBRANCH   1  10
TORSDOF 4
