REMARK  5 active torsions:
REMARK  status: ('A' for Active; 'I' for Inactive)
REMARK    1  A    between atoms: C_2  and  C_4 
REMARK    2  A    between atoms: N_9  and  C_10 
REMARK    3  A    between atoms: C_10  and  C_11 
REMARK       I    between atoms: C_11  and  N_13 
REMARK    4  A    between atoms: N_13  and  C_14 
REMARK    5  A    between atoms: C_14  and  C_15 
ROOT
HETATM    1  C   UNL     1       3.290  -2.305  -2.186  1.00  0.00     0.232 C 
ENDROOT
BRANCH   1   2
HETATM    2  N   UNL     1       3.218  -0.857  -2.215  1.00  0.00    -0.336 N 
HETATM    3  C   UNL     1       2.922  -0.035  -3.285  1.00  0.00     0.087 A 
HETATM    4  N   UNL     1       2.987   1.232  -2.916  1.00  0.00    -0.354 N 
HETATM    5  C   UNL     1       3.384   1.234  -1.608  1.00  0.00     0.106 A 
ATOM      6  HN  UNL     1       2.782   2.048  -3.493  1.00  0.00     0.166 HD
HETATM    7  C   UNL     1       3.547  -0.050  -1.155  1.00  0.00     0.110 A 
BRANCH   3   8
HETATM    8  C   UNL     1       2.581  -0.494  -4.678  1.00  0.00     0.045 C 
HETATM    9  C   UNL     1       1.065  -0.592  -4.848  1.00  0.00     0.017 C 
HETATM   10  C   UNL     1       3.169   0.455  -5.729  1.00  0.00     0.017 C 
ENDBRANCH   3   8
ENDBRANCH   1   2
BRANCH   1  11
HETATM   11  C   UNL     1       2.366  -2.926  -1.154  1.00  0.00     0.235 C 
HETATM   12  O   UNL     1       2.712  -3.090   0.016  1.00  0.00    -0.272 OA
HETATM   13  N   UNL     1       1.143  -3.332  -1.643  1.00  0.00    -0.357 N 
HETATM   14  H   UNL     1       0.786  -2.912  -2.496  1.00  0.00     0.162 HD
BRANCH  13  15
HETATM   15  C   UNL     1       0.134  -3.904  -0.764  1.00  0.00     0.154 C 
BRANCH  15  16
HETATM   16  C   UNL     1      -0.842  -4.816  -1.509  1.00  0.00     0.139 C 
HETATM   17  C   UNL     1      -0.211  -6.045  -2.161  1.00  0.00     0.035 C 
HETATM   18  C   UNL     1      -0.819  -6.099  -3.549  1.00  0.00     0.029 C 
HETATM   19  C   UNL     1      -1.950  -5.099  -3.493  1.00  0.00     0.168 C 
HETATM   20  O   UNL     1      -1.502  -4.099  -2.571  1.00  0.00    -0.384 OA
ENDBRANCH  15  16
ENDBRANCH  13  15
ENDBRANCH   1  11
TORSDOF 5
