REMARK  5 active torsions:
REMARK  status: ('A' for Active; 'I' for Inactive)
REMARK    1  A    between atoms: N_6  and  C_7 
REMARK    2  A    between atoms: C_7  and  C_8 
REMARK    3  A    between atoms: C_8  and  O_10 
REMARK    4  A    between atoms: C_8  and  C_11 
REMARK    5  A    between atoms: C_15  and  C_17 
ROOT
HETATM    1  C   UNL     1       7.224  -1.297   0.173  1.00  0.00     0.098 C 
HETATM    2  C   UNL     1       6.906  -2.007   1.497  1.00  0.00     0.053 C 
ENDROOT
BRANCH   1   3
HETATM    3  C   UNL     1       6.519   0.095   0.097  1.00  0.00     0.175 C 
BRANCH   3   4
HETATM    4  N   UNL     1       5.057   0.054   0.035  1.00  0.00    -0.307 N 
HETATM    5  C   UNL     1       4.307   0.208   1.169  1.00  0.00     0.186 A 
HETATM    6  N   UNL     1       3.020   0.246   1.204  1.00  0.00    -0.355 N 
HETATM    7  C   UNL     1       2.348   0.143   0.011  1.00  0.00     0.017 A 
ATOM      8  HN  UNL     1       2.518   0.349   2.086  1.00  0.00     0.166 HD
HETATM    9  C   UNL     1       0.850   0.257   0.126  1.00  0.00     0.069 C 
HETATM   10  C   UNL     1       2.954  -0.040  -1.177  1.00  0.00     0.028 A 
HETATM   11  C   UNL     1       4.436  -0.137  -1.179  1.00  0.00     0.256 A 
HETATM   12  C   UNL     1       2.236  -0.143  -2.489  1.00  0.00     0.056 C 
HETATM   13  O   UNL     1       5.065  -0.382  -2.208  1.00  0.00    -0.267 OA
ENDBRANCH   3   4
ENDBRANCH   1   3
BRANCH   1  14
HETATM   14  O   UNL     1       6.745  -2.157  -0.872  1.00  0.00    -0.384 OA
HETATM   15  H   UNL     1       6.365  -1.605  -1.586  1.00  0.00     0.211 HD
ENDBRANCH   1  14
BRANCH   1  16
HETATM   16  C   UNL     1       8.754  -1.194   0.037  1.00  0.00    -0.022 A 
HETATM   17  C   UNL     1       9.476  -0.081   0.504  1.00  0.00     0.010 A 
HETATM   18  C   UNL     1      10.865  -0.008   0.363  1.00  0.00     0.001 A 
HETATM   19  C   UNL     1      11.567  -1.050  -0.237  1.00  0.00     0.016 A 
HETATM   20  C   UNL     1      10.887  -2.183  -0.697  1.00  0.00     0.048 A 
HETATM   21  C   UNL     1       9.489  -2.247  -0.543  1.00  0.00     0.026 A 
BRANCH  20  22
HETATM   22  C   UNL     1      11.625  -3.322  -1.356  1.00  0.00     0.417 C 
HETATM   23  F   UNL     1      12.964  -3.098  -1.487  1.00  0.00    -0.166 F 
HETATM   24  F   UNL     1      11.513  -4.490  -0.664  1.00  0.00    -0.166 F 
HETATM   25  F   UNL     1      11.171  -3.584  -2.612  1.00  0.00    -0.166 F 
ENDBRANCH  20  22
ENDBRANCH   1  16
TORSDOF 5
