REMARK  7 active torsions:
REMARK  status: ('A' for Active; 'I' for Inactive)
REMARK    1  A    between atoms: N_5  and  C_6 
REMARK    2  A    between atoms: C_6  and  C_7 
REMARK    3  A    between atoms: C_7  and  O_8 
REMARK    4  A    between atoms: C_7  and  C_9 
REMARK    5  A    between atoms: C_9  and  O_10 
REMARK    6  A    between atoms: O_10  and  C_11 
REMARK    7  A    between atoms: C_11  and  C_12 
ROOT
HETATM    1  C   UNL     1       6.524  -3.224  -4.601  1.00  0.00     0.070 C 
HETATM    2  C   UNL     1       6.876  -2.572  -3.281  1.00  0.00     0.029 A 
HETATM    3  N   UNL     1       5.988  -2.659  -2.344  1.00  0.00    -0.300 N 
ATOM      4  HN  UNL     1       5.090  -3.111  -2.518  1.00  0.00     0.187 HD
HETATM    5  N   UNL     1       6.279  -2.131  -1.113  1.00  0.00    -0.254 N 
HETATM    6  C   UNL     1       7.448  -1.432  -0.833  1.00  0.00     0.283 A 
HETATM    7  O   UNL     1       7.676  -0.901   0.252  1.00  0.00    -0.265 OA
HETATM    8  C   UNL     1       8.440  -1.348  -1.937  1.00  0.00     0.121 A 
HETATM    9  C   UNL     1       9.654  -0.660  -1.658  1.00  0.00     0.105 C 
HETATM   10  N   UNL     1      10.666  -0.111  -1.500  1.00  0.00    -0.191 NA
HETATM   11  C   UNL     1       8.191  -1.895  -3.140  1.00  0.00    -0.012 A 
HETATM   12  C   UNL     1       9.108  -1.861  -4.328  1.00  0.00     0.052 C 
ENDROOT
BRANCH   5  13
HETATM   13  C   UNL     1       5.233  -2.219  -0.088  1.00  0.00     0.186 C 
BRANCH  13  14
HETATM   14  C   UNL     1       4.392  -3.509  -0.140  1.00  0.00     0.162 C 
BRANCH  14  15
HETATM   15  O   UNL     1       3.671  -3.616  -1.371  1.00  0.00    -0.392 OA
HETATM   16  H   UNL     1       4.323  -3.367  -2.062  1.00  0.00     0.210 HD
ENDBRANCH  14  15
BRANCH  14  17
HETATM   17  C   UNL     1       5.243  -4.768   0.082  1.00  0.00     0.201 C 
BRANCH  17  18
HETATM   18  O   UNL     1       6.021  -4.714   1.274  1.00  0.00    -0.384 OA
BRANCH  18  19
HETATM   19  C   UNL     1       5.235  -4.749   2.469  1.00  0.00     0.208 C 
BRANCH  19  20
HETATM   20  C   UNL     1       6.134  -4.663   3.676  1.00  0.00    -0.013 A 
HETATM   21  C   UNL     1       7.347  -3.953   3.597  1.00  0.00     0.011 A 
HETATM   22  C   UNL     1       8.186  -3.837   4.705  1.00  0.00     0.001 A 
HETATM   23  C   UNL     1       7.817  -4.410   5.918  1.00  0.00     0.002 A 
HETATM   24  C   UNL     1       6.602  -5.085   6.026  1.00  0.00     0.024 A 
HETATM   25  C   UNL     1       5.760  -5.203   4.916  1.00  0.00     0.042 A 
HETATM   26 CL   UNL     1       4.249  -6.012   5.143  1.00  0.00    -0.084 Cl
ENDBRANCH  19  20
ENDBRANCH  18  19
ENDBRANCH  17  18
ENDBRANCH  14  17
ENDBRANCH  13  14
ENDBRANCH   5  13
TORSDOF 7
