REMARK  8 active torsions:
REMARK  status: ('A' for Active; 'I' for Inactive)
REMARK    1  A    between atoms: N_2  and  C_13 
REMARK    2  A    between atoms: C_6  and  N_8 
REMARK    3  A    between atoms: C_13  and  C_15 
REMARK    4  A    between atoms: C_14  and  C_19 
REMARK       I    between atoms: C_14  and  N_24 
REMARK    5  A    between atoms: C_15  and  C_25 
REMARK    6  A    between atoms: C_15  and  C_26 
REMARK    7  A    between atoms: N_24  and  C_30 
REMARK    8  A    between atoms: C_26  and  O_28 
ROOT
HETATM    1  C   UNL     1       0.391  -0.833  -0.367  1.00  0.00     0.117 A 
HETATM    2  N   UNL     1       1.511   1.043  -0.399  1.00  0.00    -0.327 N 
HETATM    3  C   UNL     1       0.242   0.537  -0.502  1.00  0.00     0.140 A 
HETATM    4  N   UNL     1       1.731  -1.166  -0.280  1.00  0.00    -0.346 N 
ATOM      5  HN  UNL     1       2.135  -2.101  -0.227  1.00  0.00     0.167 HD
HETATM    6  C   UNL     1      -0.794  -1.602  -0.286  1.00  0.00     0.114 A 
HETATM    7  C   UNL     1       2.371  -0.017  -0.281  1.00  0.00     0.185 A 
HETATM    8  N   UNL     1      -0.903   1.227  -0.629  1.00  0.00    -0.336 N 
ATOM      9  HN  UNL     1      -0.962   2.239  -0.745  1.00  0.00     0.168 HD
HETATM   10  N   UNL     1      -1.979  -0.939  -0.395  1.00  0.00    -0.341 N 
ATOM     11  HN  UNL     1      -2.863  -1.444  -0.336  1.00  0.00     0.167 HD
HETATM   12  C   UNL     1      -1.964   0.397  -0.582  1.00  0.00     0.183 A 
ENDROOT
BRANCH   6  13
HETATM   13  N   UNL     1      -0.760  -2.994  -0.083  1.00  0.00    -0.267 NA
HETATM   14  C   UNL     1      -1.919  -3.516   0.640  1.00  0.00     0.098 C 
HETATM   15  C   UNL     1      -1.662  -4.989   0.969  1.00  0.00     0.029 C 
HETATM   16  C   UNL     1      -1.350  -5.806  -0.295  1.00  0.00     0.080 C 
HETATM   17  C   UNL     1      -0.222  -5.141  -1.100  1.00  0.00     0.029 C 
HETATM   18  C   UNL     1      -0.502  -3.661  -1.364  1.00  0.00     0.098 C 
BRANCH  16  19
HETATM   19  C   UNL     1      -2.586  -6.023  -1.166  1.00  0.00     0.221 C 
HETATM   20  O   UNL     1      -2.667  -5.632  -2.325  1.00  0.00    -0.273 OA
HETATM   21  N   UNL     1      -3.598  -6.733  -0.557  1.00  0.00    -0.361 N 
HETATM   22  H   UNL     1      -3.485  -7.062   0.393  1.00  0.00     0.162 HD
BRANCH  21  23
HETATM   23  C   UNL     1      -4.833  -7.028  -1.254  1.00  0.00     0.118 C 
HETATM   24  C   UNL     1      -5.852  -5.916  -1.082  1.00  0.00     0.026 C 
ENDBRANCH  21  23
ENDBRANCH  16  19
ENDBRANCH   6  13
BRANCH   2  25
HETATM   25  C   UNL     1       1.835   2.424  -0.119  1.00  0.00     0.138 C 
BRANCH  25  26
HETATM   26  C   UNL     1       2.807   3.123  -1.094  1.00  0.00     0.034 C 
BRANCH  26  27
HETATM   27  C   UNL     1       2.254   3.196  -2.541  1.00  0.00     0.019 C 
HETATM   28  C   UNL     1       3.211   3.872  -3.526  1.00  0.00     0.172 C 
HETATM   29  O   UNL     1       2.610   5.122  -3.877  1.00  0.00    -0.391 OA
HETATM   30  C   UNL     1       1.198   4.906  -3.863  1.00  0.00     0.168 C 
HETATM   31  C   UNL     1       0.955   3.985  -2.688  1.00  0.00     0.033 C 
ENDBRANCH  26  27
BRANCH  26  32
HETATM   32  C   UNL     1       3.172   4.503  -0.508  1.00  0.00     0.170 C 
BRANCH  32  33
HETATM   33  O   UNL     1       3.849   4.333   0.734  1.00  0.00    -0.400 OA
HETATM   34  H   UNL     1       3.186   4.335   1.446  1.00  0.00     0.209 HD
ENDBRANCH  32  33
ENDBRANCH  26  32
ENDBRANCH  25  26
ENDBRANCH   2  25
TORSDOF 8
