REMARK  4 active torsions:
REMARK  status: ('A' for Active; 'I' for Inactive)
REMARK    1  A    between atoms: C_7  and  C_9 
REMARK    2  A    between atoms: C_9  and  O_10 
REMARK    3  A    between atoms: C_9  and  C_11 
REMARK    4  A    between atoms: C_11  and  N_12 
ROOT
HETATM    1  C   UNL     1       5.305   2.559   0.190  1.00  0.00     0.169 C 
ENDROOT
BRANCH   1   2
HETATM    2  C   UNL     1       4.638   1.187   0.114  1.00  0.00    -0.027 A 
HETATM    3  C   UNL     1       3.773   0.710   1.114  1.00  0.00     0.016 A 
HETATM    4  C   UNL     1       3.173  -0.557   1.026  1.00  0.00    -0.061 A 
HETATM    5  C   UNL     1       3.424  -1.356  -0.094  1.00  0.00     0.013 A 
HETATM    6  C   UNL     1       2.269  -1.033   2.126  1.00  0.00     0.048 C 
HETATM    7  C   UNL     1       4.251  -0.895  -1.123  1.00  0.00    -0.061 A 
HETATM    8  C   UNL     1       4.500  -1.731  -2.344  1.00  0.00     0.048 C 
HETATM    9  C   UNL     1       4.846   0.372  -1.013  1.00  0.00     0.016 A 
ENDBRANCH   1   2
BRANCH   1  10
HETATM   10  O   UNL     1       4.972   3.221   1.419  1.00  0.00    -0.389 OA
HETATM   11  H   UNL     1       5.223   2.630   2.148  1.00  0.00     0.210 HD
ENDBRANCH   1  10
BRANCH   1  12
HETATM   12  C   UNL     1       6.851   2.478   0.080  1.00  0.00     0.169 C 
BRANCH  12  13
HETATM   13  N   UNL     1       7.499   3.792   0.135  1.00  0.00    -0.307 N 
HETATM   14  C   UNL     1       7.825   4.346   1.341  1.00  0.00     0.186 A 
HETATM   15  N   UNL     1       8.401   5.488   1.504  1.00  0.00    -0.355 N 
HETATM   16  C   UNL     1       8.670   6.228   0.381  1.00  0.00     0.017 A 
ATOM     17  HN  UNL     1       8.647   5.828   2.433  1.00  0.00     0.166 HD
HETATM   18  C   UNL     1       9.310   7.564   0.661  1.00  0.00     0.069 C 
HETATM   19  C   UNL     1       8.379   5.821  -0.870  1.00  0.00     0.028 A 
HETATM   20  C   UNL     1       8.596   6.602  -2.129  1.00  0.00     0.056 C 
HETATM   21  C   UNL     1       7.774   4.467  -1.032  1.00  0.00     0.256 A 
HETATM   22  O   UNL     1       7.557   4.009  -2.152  1.00  0.00    -0.267 OA
ENDBRANCH  12  13
ENDBRANCH   1  12
TORSDOF 4
