REMARK  5 active torsions:
REMARK  status: ('A' for Active; 'I' for Inactive)
REMARK    1  A    between atoms: N_1  and  C_11 
REMARK    2  A    between atoms: N_2  and  C_14 
REMARK    3  A    between atoms: C_4  and  C_10 
REMARK    4  A    between atoms: C_5  and  C_16 
REMARK    5  A    between atoms: C_10  and  C_11 
ROOT
HETATM    1  C   UNL     1      -3.152   2.225  -0.139  1.00  0.00     0.181 C 
HETATM    2  O   UNL     1      -4.001   3.121  -0.078  1.00  0.00    -0.290 OA
ENDROOT
BRANCH   1   3
HETATM    3  C   UNL     1      -3.505   0.920  -0.753  1.00  0.00     0.051 C 
HETATM    4  C   UNL     1      -4.818   0.426  -0.939  1.00  0.00     0.058 C 
HETATM    5  N   UNL     1      -4.692  -0.677  -1.762  1.00  0.00    -0.354 N 
HETATM    6  C   UNL     1      -3.390  -0.993  -2.013  1.00  0.00     0.044 A 
HETATM    7  H   UNL     1      -5.467  -1.230  -2.095  1.00  0.00     0.166 HD
HETATM    8  C   UNL     1      -2.612  -0.077  -1.315  1.00  0.00     0.007 A 
HETATM    9  C   UNL     1      -2.862  -2.033  -2.794  1.00  0.00     0.030 A 
HETATM   10  C   UNL     1      -1.220  -0.300  -1.351  1.00  0.00     0.015 A 
HETATM   11  C   UNL     1      -0.663  -1.324  -2.121  1.00  0.00     0.001 A 
HETATM   12  C   UNL     1      -1.477  -2.172  -2.850  1.00  0.00     0.002 A 
BRANCH   4  13
HETATM   13  C   UNL     1      -6.172   0.778  -0.435  1.00  0.00    -0.009 A 
HETATM   14  C   UNL     1      -7.331   0.397  -1.157  1.00  0.00     0.014 A 
HETATM   15  C   UNL     1      -8.622   0.536  -0.627  1.00  0.00     0.001 A 
HETATM   16  C   UNL     1      -8.797   1.085   0.635  1.00  0.00     0.000 A 
HETATM   17  C   UNL     1      -7.677   1.509   1.349  1.00  0.00     0.001 A 
HETATM   18  C   UNL     1      -6.381   1.355   0.822  1.00  0.00     0.014 A 
ENDBRANCH   4  13
ENDBRANCH   1   3
BRANCH   1  19
HETATM   19  C   UNL     1      -1.780   2.490   0.526  1.00  0.00     0.221 C 
BRANCH  19  20
HETATM   20  N   UNL     1      -0.554   2.618  -0.272  1.00  0.00    -0.256 N 
HETATM   21  C   UNL     1       0.628   2.124   0.294  1.00  0.00     0.334 C 
HETATM   22  N   UNL     1       1.729   2.053  -0.568  1.00  0.00    -0.279 N 
HETATM   23  O   UNL     1       0.684   1.720   1.456  1.00  0.00    -0.246 OA
HETATM   24  C   UNL     1       1.766   2.801  -1.727  1.00  0.00     0.146 C 
HETATM   25  C   UNL     1       0.729   3.549  -2.097  1.00  0.00     0.200 C 
HETATM   26  C   UNL     1      -0.529   3.528  -1.316  1.00  0.00     0.292 C 
HETATM   27  F   UNL     1       0.767   4.332  -3.192  1.00  0.00    -0.199 F 
HETATM   28  O   UNL     1      -1.462   4.269  -1.605  1.00  0.00    -0.264 OA
BRANCH  22  29
HETATM   29  C   UNL     1       2.880   1.264  -0.118  1.00  0.00     0.232 C 
HETATM   30  O   UNL     1       3.935   1.226  -1.100  1.00  0.00    -0.366 OA
HETATM   31  C   UNL     1       4.604  -0.046  -1.001  1.00  0.00     0.170 C 
HETATM   32  C   UNL     1       3.911  -0.850   0.078  1.00  0.00     0.031 C 
HETATM   33  C   UNL     1       2.550  -0.205   0.126  1.00  0.00     0.056 C 
ENDBRANCH  22  29
ENDBRANCH  19  20
ENDBRANCH   1  19
TORSDOF 5
