REMARK  8 active torsions:
REMARK  status: ('A' for Active; 'I' for Inactive)
REMARK    1  A    between atoms: N_2  and  C_13 
REMARK    2  A    between atoms: C_6  and  N_8 
REMARK    3  A    between atoms: N_8  and  C_16 
REMARK    4  A    between atoms: N_8  and  C_24 
REMARK    5  A    between atoms: C_13  and  C_17 
REMARK    6  A    between atoms: C_15  and  C_16 
REMARK       I    between atoms: C_15  and  N_20 
REMARK    7  A    between atoms: C_17  and  O_23 
REMARK    8  A    between atoms: N_20  and  C_27 
ROOT
HETATM    1  C   UNL     1       0.389  -0.702   0.187  1.00  0.00     0.122 A 
HETATM    2  N   UNL     1       1.394   1.249   0.093  1.00  0.00    -0.324 N 
HETATM    3  C   UNL     1       0.164   0.657   0.009  1.00  0.00     0.140 A 
HETATM    4  N   UNL     1       1.745  -0.929   0.376  1.00  0.00    -0.346 N 
ATOM      5  HN  UNL     1       2.206  -1.827   0.522  1.00  0.00     0.167 HD
HETATM    6  C   UNL     1      -0.744  -1.553   0.134  1.00  0.00     0.135 A 
HETATM    7  C   UNL     1       2.311   0.259   0.327  1.00  0.00     0.185 A 
HETATM    8  N   UNL     1      -1.010   1.276  -0.192  1.00  0.00    -0.336 N 
ATOM      9  HN  UNL     1      -1.122   2.283  -0.308  1.00  0.00     0.168 HD
HETATM   10  N   UNL     1      -1.954  -0.953  -0.084  1.00  0.00    -0.337 N 
ATOM     11  HN  UNL     1      -2.803  -1.516  -0.144  1.00  0.00     0.168 HD
HETATM   12  C   UNL     1      -2.017   0.388  -0.219  1.00  0.00     0.183 A 
ENDROOT
BRANCH   6  13
HETATM   13  N   UNL     1      -0.745  -2.921   0.334  1.00  0.00    -0.357 N 
BRANCH  13  14
HETATM   14  C   UNL     1      -1.648  -3.758  -0.474  1.00  0.00     0.227 C 
BRANCH  14  15
HETATM   15  C   UNL     1      -2.907  -4.222   0.277  1.00  0.00     0.235 C 
HETATM   16  O   UNL     1      -3.447  -5.296   0.032  1.00  0.00    -0.272 OA
HETATM   17  N   UNL     1      -3.396  -3.326   1.206  1.00  0.00    -0.360 N 
HETATM   18  H   UNL     1      -2.939  -2.417   1.228  1.00  0.00     0.162 HD
BRANCH  17  19
HETATM   19  C   UNL     1      -4.591  -3.571   1.974  1.00  0.00     0.118 C 
HETATM   20  C   UNL     1      -5.839  -3.090   1.251  1.00  0.00     0.026 C 
ENDBRANCH  17  19
ENDBRANCH  14  15
ENDBRANCH  13  14
BRANCH  13  21
HETATM   21  C   UNL     1       0.207  -3.565   1.230  1.00  0.00     0.120 C 
HETATM   22  C   UNL     1      -0.085  -3.198   2.680  1.00  0.00     0.026 C 
ENDBRANCH  13  21
ENDBRANCH   6  13
BRANCH   2  23
HETATM   23  C   UNL     1       1.655   2.676   0.097  1.00  0.00     0.169 C 
BRANCH  23  24
HETATM   24  C   UNL     1       2.071   3.296  -1.262  1.00  0.00     0.078 C 
HETATM   25  C   UNL     1       2.400   4.789  -1.059  1.00  0.00     0.066 C 
HETATM   26  C   UNL     1       1.143   5.639  -0.951  1.00  0.00     0.170 C 
HETATM   27  O   UNL     1       0.356   5.485  -2.127  1.00  0.00    -0.391 OA
HETATM   28  C   UNL     1      -0.114   4.150  -2.295  1.00  0.00     0.170 C 
HETATM   29  C   UNL     1       1.042   3.161  -2.400  1.00  0.00     0.066 C 
BRANCH  24  30
HETATM   30  O   UNL     1       3.302   2.667  -1.666  1.00  0.00    -0.388 OA
HETATM   31  H   UNL     1       3.106   1.762  -1.968  1.00  0.00     0.210 HD
ENDBRANCH  24  30
ENDBRANCH  23  24
ENDBRANCH   2  23
TORSDOF 8
