REMARK  5 active torsions:
REMARK  status: ('A' for Active; 'I' for Inactive)
REMARK    1  A    between atoms: C_2  and  O_3 
REMARK    2  A    between atoms: O_3  and  C_4 
REMARK    3  A    between atoms: C_10  and  N_11 
REMARK       I    between atoms: N_11  and  C_12 
REMARK       I    between atoms: C_12  and  N_14 
REMARK    4  A    between atoms: N_14  and  C_15 
REMARK    5  A    between atoms: C_15  and  C_16 
ROOT
HETATM    1  C   UNL     1       5.716  -2.613  -0.460  1.00  0.00     0.169 A 
HETATM    2  N   UNL     1       6.569  -1.581  -0.228  1.00  0.00    -0.345 N 
ATOM      3  HN  UNL     1       7.411  -1.706   0.333  1.00  0.00     0.167 HD
HETATM    4  C   UNL     1       6.260  -0.385  -0.768  1.00  0.00     0.090 A 
HETATM    5  C   UNL     1       5.157  -0.177  -1.568  1.00  0.00     0.019 A 
HETATM    6  C   UNL     1       4.299  -1.250  -1.797  1.00  0.00     0.035 A 
HETATM    7  C   UNL     1       4.535  -2.496  -1.203  1.00  0.00     0.087 A 
ENDROOT
BRANCH   7   8
HETATM    8  N   UNL     1       3.629  -3.592  -1.343  1.00  0.00    -0.305 N 
HETATM    9  C   UNL     1       2.300  -3.433  -1.652  1.00  0.00     0.320 C 
HETATM   10  O   UNL     1       1.737  -2.345  -1.777  1.00  0.00    -0.247 OA
HETATM   11  N   UNL     1       1.599  -4.612  -1.814  1.00  0.00    -0.342 N 
HETATM   12  H   UNL     1       2.128  -5.394  -2.174  1.00  0.00     0.164 HD
HETATM   13  H   UNL     1       3.903  -4.451  -0.882  1.00  0.00     0.171 HD
BRANCH  11  14
HETATM   14  C   UNL     1       0.245  -4.450  -2.313  1.00  0.00     0.129 C 
BRANCH  14  15
HETATM   15  C   UNL     1      -0.558  -5.707  -2.321  1.00  0.00     0.003 A 
HETATM   16  C   UNL     1      -0.335  -6.848  -3.280  1.00  0.00     0.007 A 
HETATM   17  C   UNL     1      -1.497  -5.919  -3.490  1.00  0.00     0.007 A 
ENDBRANCH  14  15
ENDBRANCH  11  14
ENDBRANCH   7   8
BRANCH   1  18
HETATM   18  O   UNL     1       6.010  -3.840   0.116  1.00  0.00    -0.334 OA
BRANCH  18  19
HETATM   19  C   UNL     1       7.382  -3.914   0.532  1.00  0.00     0.173 C 
HETATM   20  C   UNL     1       7.608  -5.225   1.261  1.00  0.00     0.034 C 
ENDBRANCH  18  19
ENDBRANCH   1  18
TORSDOF 5
