REMARK  5 active torsions:
REMARK  status: ('A' for Active; 'I' for Inactive)
REMARK    1  A    between atoms: S_2  and  N_4 
REMARK    2  A    between atoms: S_2  and  N_14 
REMARK    3  A    between atoms: N_4  and  C_5 
REMARK    4  A    between atoms: C_5  and  C_6 
REMARK    5  A    between atoms: C_6  and  C_7 
ROOT
HETATM    1  N   UNL     1       3.021  -0.033   1.391  1.00  0.00    -0.206 NA
HETATM    2  H   UNL     1       4.030   0.140   1.378  1.00  0.00     0.140 HD
ENDROOT
BRANCH   1   3
HETATM    3  S   UNL     1       2.482   0.174  -0.182  1.00  0.00     0.281 S 
HETATM    4  O   UNL     1       1.088  -0.180  -0.247  1.00  0.00    -0.194 OA
HETATM    5  O   UNL     1       2.956   1.457  -0.635  1.00  0.00    -0.194 OA
BRANCH   3   6
HETATM    6  N   UNL     1       3.357  -1.023  -0.973  1.00  0.00    -0.194 NA
HETATM    7  C   UNL     1       2.978  -1.157  -2.425  1.00  0.00     0.134 C 
HETATM    8  C   UNL     1       1.728  -2.036  -2.610  1.00  0.00     0.183 C 
HETATM    9  O   UNL     1       1.899  -3.326  -2.006  1.00  0.00    -0.389 OA
HETATM   10  C   UNL     1       2.155  -3.197  -0.601  1.00  0.00     0.183 C 
HETATM   11  C   UNL     1       3.425  -2.384  -0.355  1.00  0.00     0.134 C 
ENDBRANCH   3   6
ENDBRANCH   1   3
BRANCH   1  12
HETATM   12  C   UNL     1       2.384   0.823   2.429  1.00  0.00     0.110 C 
BRANCH  12  13
HETATM   13  C   UNL     1       0.875   0.615   2.561  1.00  0.00     0.055 C 
BRANCH  13  14
HETATM   14  C   UNL     1       0.283   1.484   3.635  1.00  0.00    -0.042 A 
HETATM   15  C   UNL     1      -0.143   2.784   3.346  1.00  0.00     0.010 A 
HETATM   16  C   UNL     1      -0.679   3.573   4.357  1.00  0.00     0.018 A 
HETATM   17  C   UNL     1      -0.761   3.034   5.629  1.00  0.00     0.087 A 
HETATM   18  N   UNL     1      -0.354   1.785   5.947  1.00  0.00    -0.375 N 
HETATM   19  C   UNL     1       0.154   1.039   4.944  1.00  0.00     0.094 A 
ATOM     20  HN  UNL     1      -0.427   1.424   6.898  1.00  0.00     0.164 HD
ENDBRANCH  13  14
ENDBRANCH  12  13
ENDBRANCH   1  12
TORSDOF 5
