REMARK  2 active torsions:
REMARK  status: ('A' for Active; 'I' for Inactive)
REMARK    1  A    between atoms: C_6  and  C_8 
REMARK       I    between atoms: C_8  and  N_10 
REMARK    2  A    between atoms: N_10  and  C_11 
ROOT
HETATM    1  C   UNL     1       3.356  -3.042  -2.026  1.00  0.00     0.253 C 
HETATM    2  O   UNL     1       2.947  -4.054  -1.461  1.00  0.00    -0.270 OA
HETATM    3  N   UNL     1       4.431  -2.991  -2.896  1.00  0.00    -0.323 N 
HETATM    4  H   UNL     1       4.408  -2.200  -3.540  1.00  0.00     0.169 HD
ENDROOT
BRANCH   3   5
HETATM    5  C   UNL     1       5.178  -4.128  -3.267  1.00  0.00     0.059 A 
HETATM    6  C   UNL     1       5.526  -5.085  -2.315  1.00  0.00     0.048 A 
HETATM    7  C   UNL     1       6.220  -6.207  -2.737  1.00  0.00     0.090 A 
HETATM    8  N   UNL     1       6.563  -6.433  -4.018  1.00  0.00    -0.368 N 
HETATM    9  C   UNL     1       6.220  -5.490  -4.940  1.00  0.00     0.029 A 
ATOM     10  HN  UNL     1       7.062  -7.280  -4.290  1.00  0.00     0.165 HD
HETATM   11  C   UNL     1       6.525  -5.839  -6.369  1.00  0.00     0.070 C 
HETATM   12  C   UNL     1       5.566  -4.307  -4.599  1.00  0.00     0.083 A 
HETATM   13 CL   UNL     1       5.144  -3.124  -5.792  1.00  0.00    -0.080 Cl
ENDBRANCH   3   5
BRANCH   1  14
HETATM   14  C   UNL     1       2.697  -1.679  -1.804  1.00  0.00     0.241 C 
HETATM   15  O   UNL     1       3.196  -0.699  -2.732  1.00  0.00    -0.373 OA
HETATM   16  C   UNL     1       2.653   0.596  -2.438  1.00  0.00     0.199 C 
HETATM   17  C   UNL     1       2.968   1.026  -0.994  1.00  0.00     0.298 C 
HETATM   18  N   UNL     1       2.520   0.062   0.031  1.00  0.00     0.089 N 
HETATM   19  C   UNL     1       1.071   0.079   0.211  1.00  0.00     0.310 C 
HETATM   20  C   UNL     1       2.999  -1.285  -0.347  1.00  0.00     0.313 C 
ENDBRANCH   1  14
TORSDOF 2
