REMARK  4 active torsions:
REMARK  status: ('A' for Active; 'I' for Inactive)
REMARK    1  A    between atoms: N_2  and  C_4 
REMARK    2  A    between atoms: N_8  and  C_9 
REMARK    3  A    between atoms: C_9  and  C_10 
REMARK       I    between atoms: C_10  and  N_12 
REMARK    4  A    between atoms: N_12  and  C_13 
ROOT
HETATM    1  C   UNL     1       5.097   0.074  -4.098  1.00  0.00     0.234 C 
ENDROOT
BRANCH   1   2
HETATM    2  N   UNL     1       4.163   0.347  -5.189  1.00  0.00    -0.314 N 
HETATM    3  C   UNL     1       2.803   0.152  -4.995  1.00  0.00     0.095 C 
HETATM    4  C   UNL     1       1.913   0.462  -5.946  1.00  0.00     0.020 C 
HETATM    5  C   UNL     1       2.354   1.140  -7.143  1.00  0.00     0.043 C 
HETATM    6  C   UNL     1       3.669   1.308  -7.362  1.00  0.00     0.170 C 
HETATM    7  C   UNL     1       4.684   0.764  -6.423  1.00  0.00     0.281 C 
HETATM    8  O   UNL     1       5.877   0.664  -6.699  1.00  0.00    -0.265 OA
BRANCH   6   9
HETATM    9  N   UNL     1       4.083   2.142  -8.465  1.00  0.00    -0.110 N 
HETATM   10  O   UNL     1       3.329   2.212  -9.447  1.00  0.00    -0.532 OA
HETATM   11  O   UNL     1       5.127   2.794  -8.340  1.00  0.00    -0.532 OA
ENDBRANCH   6   9
ENDBRANCH   1   2
BRANCH   1  12
HETATM   12  C   UNL     1       5.130  -1.395  -3.702  1.00  0.00     0.236 C 
HETATM   13  O   UNL     1       4.313  -1.865  -2.911  1.00  0.00    -0.272 OA
HETATM   14  N   UNL     1       6.090  -2.153  -4.340  1.00  0.00    -0.355 N 
HETATM   15  H   UNL     1       6.569  -1.756  -5.142  1.00  0.00     0.162 HD
BRANCH  14  16
HETATM   16  C   UNL     1       6.193  -3.589  -4.088  1.00  0.00     0.084 C 
HETATM   17  C   UNL     1       7.626  -4.070  -4.351  1.00  0.00     0.025 C 
HETATM   18  C   UNL     1       7.920  -5.407  -3.674  1.00  0.00     0.002 C 
HETATM   19  C   UNL     1       7.530  -6.650  -4.468  1.00  0.00     0.000 C 
HETATM   20  C   UNL     1       6.241  -6.595  -5.282  1.00  0.00     0.000 C 
HETATM   21  C   UNL     1       5.086  -5.846  -4.626  1.00  0.00     0.002 C 
HETATM   22  C   UNL     1       5.130  -4.342  -4.895  1.00  0.00     0.025 C 
ENDBRANCH  14  16
ENDBRANCH   1  12
TORSDOF 4
