REMARK  3 active torsions:
REMARK  status: ('A' for Active; 'I' for Inactive)
REMARK    1  A    between atoms: O_2  and  C_3 
REMARK    2  A    between atoms: C_9  and  N_10 
REMARK       I    between atoms: N_10  and  C_11 
REMARK       I    between atoms: C_11  and  N_13 
REMARK    3  A    between atoms: N_13  and  C_14 
ROOT
HETATM    1  N   UNL     1       2.071  -2.684  -0.742  1.00  0.00    -0.305 N 
HETATM    2  C   UNL     1       1.520  -2.472   0.509  1.00  0.00     0.321 C 
HETATM    3  O   UNL     1       2.105  -1.993   1.473  1.00  0.00    -0.247 OA
HETATM    4  N   UNL     1       0.185  -2.801   0.573  1.00  0.00    -0.338 N 
HETATM    5  H   UNL     1       1.622  -3.343  -1.361  1.00  0.00     0.171 HD
HETATM    6  H   UNL     1      -0.193  -3.426  -0.122  1.00  0.00     0.164 HD
ENDROOT
BRANCH   1   7
HETATM    7  C   UNL     1       3.359  -2.246  -1.150  1.00  0.00     0.087 A 
HETATM    8  C   UNL     1       3.968  -2.750  -2.307  1.00  0.00     0.169 A 
HETATM    9  N   UNL     1       5.219  -2.416  -2.715  1.00  0.00    -0.345 N 
HETATM   10  C   UNL     1       5.886  -1.509  -1.974  1.00  0.00     0.090 A 
ATOM     11  HN  UNL     1       5.636  -2.834  -3.547  1.00  0.00     0.167 HD
HETATM   12  C   UNL     1       5.348  -0.893  -0.863  1.00  0.00     0.019 A 
HETATM   13  C   UNL     1       4.070  -1.264  -0.455  1.00  0.00     0.035 A 
BRANCH   8  14
HETATM   14  O   UNL     1       3.259  -3.659  -3.078  1.00  0.00    -0.339 OA
HETATM   15  C   UNL     1       3.809  -3.767  -4.396  1.00  0.00     0.211 C 
ENDBRANCH   8  14
ENDBRANCH   1   7
BRANCH   4  16
HETATM   16  C   UNL     1      -0.552  -2.604   1.811  1.00  0.00     0.086 C 
HETATM   17  C   UNL     1      -0.467  -3.795   2.773  1.00  0.00     0.025 C 
HETATM   18  C   UNL     1      -1.834  -3.890   3.458  1.00  0.00     0.002 C 
HETATM   19  C   UNL     1      -2.643  -2.701   2.956  1.00  0.00     0.002 C 
HETATM   20  C   UNL     1      -2.047  -2.396   1.591  1.00  0.00     0.025 C 
ENDBRANCH   4  16
TORSDOF 3
