REMARK  4 active torsions:
REMARK  status: ('A' for Active; 'I' for Inactive)
REMARK    1  A    between atoms: C_2  and  C_5 
REMARK    2  A    between atoms: N_10  and  C_11 
REMARK    3  A    between atoms: C_11  and  C_12 
REMARK       I    between atoms: C_12  and  N_14 
REMARK    4  A    between atoms: N_14  and  C_15 
ROOT
HETATM    1  C   UNL     1       1.659  -4.809  -2.654  1.00  0.00     0.234 C 
ENDROOT
BRANCH   1   2
HETATM    2  N   UNL     1       1.186  -5.751  -3.666  1.00  0.00    -0.315 N 
HETATM    3  C   UNL     1       2.000  -6.832  -3.990  1.00  0.00     0.247 A 
HETATM    4  C   UNL     1       1.456  -7.767  -5.011  1.00  0.00     0.075 A 
HETATM    5  O   UNL     1       3.097  -7.049  -3.482  1.00  0.00    -0.268 OA
HETATM    6  C   UNL     1       0.221  -7.588  -5.502  1.00  0.00     0.023 A 
HETATM    7  C   UNL     1      -0.610  -6.483  -5.056  1.00  0.00     0.063 A 
HETATM    8  C   UNL     1      -0.095  -5.606  -4.177  1.00  0.00     0.110 A 
BRANCH   7   9
HETATM    9  C   UNL     1      -2.026  -6.370  -5.550  1.00  0.00     0.418 C 
HETATM   10  F   UNL     1      -2.431  -7.463  -6.246  1.00  0.00    -0.166 F 
HETATM   11  F   UNL     1      -2.186  -5.301  -6.370  1.00  0.00    -0.166 F 
HETATM   12  F   UNL     1      -2.904  -6.215  -4.526  1.00  0.00    -0.166 F 
ENDBRANCH   7   9
ENDBRANCH   1   2
BRANCH   1  13
HETATM   13  C   UNL     1       1.152  -5.211  -1.266  1.00  0.00     0.236 C 
HETATM   14  O   UNL     1       0.079  -4.809  -0.826  1.00  0.00    -0.272 OA
HETATM   15  N   UNL     1       1.974  -6.098  -0.607  1.00  0.00    -0.355 N 
HETATM   16  H   UNL     1       2.750  -6.487  -1.134  1.00  0.00     0.162 HD
BRANCH  15  17
HETATM   17  C   UNL     1       1.771  -6.603   0.756  1.00  0.00     0.084 C 
HETATM   18  C   UNL     1       0.478  -7.421   0.883  1.00  0.00     0.025 C 
HETATM   19  C   UNL     1       0.313  -8.253   2.161  1.00  0.00     0.002 C 
HETATM   20  C   UNL     1       1.558  -9.033   2.602  1.00  0.00     0.000 C 
HETATM   21  C   UNL     1       2.346  -8.400   3.752  1.00  0.00     0.000 C 
HETATM   22  C   UNL     1       3.040  -7.060   3.491  1.00  0.00     0.000 C 
HETATM   23  C   UNL     1       2.093  -5.882   3.252  1.00  0.00     0.002 C 
HETATM   24  C   UNL     1       1.908  -5.472   1.786  1.00  0.00     0.025 C 
ENDBRANCH  15  17
ENDBRANCH   1  13
TORSDOF 4
