REMARK  5 active torsions:
REMARK  status: ('A' for Active; 'I' for Inactive)
REMARK    1  A    between atoms: C_2  and  C_3 
REMARK    2  A    between atoms: C_2  and  N_10 
REMARK    3  A    between atoms: C_3  and  N_4 
REMARK       I    between atoms: N_10  and  C_11 
REMARK       I    between atoms: C_11  and  N_13 
REMARK    4  A    between atoms: N_13  and  C_14 
REMARK    5  A    between atoms: C_14  and  C_15 
ROOT
HETATM    1  N   UNL     1       3.144   0.868   0.951  1.00  0.00    -0.337 N 
HETATM    2  C   UNL     1       4.507   0.956   1.096  1.00  0.00     0.316 C 
HETATM    3  O   UNL     1       5.309   0.223   0.536  1.00  0.00    -0.247 OA
HETATM    4  N   UNL     1       4.851   1.990   1.930  1.00  0.00    -0.343 N 
HETATM    5  H   UNL     1       2.673   1.765   1.034  1.00  0.00     0.164 HD
HETATM    6  H   UNL     1       4.172   2.177   2.654  1.00  0.00     0.164 HD
ENDROOT
BRANCH   1   7
HETATM    7  C   UNL     1       2.570  -0.073  -0.014  1.00  0.00     0.102 C 
HETATM    8  C   UNL     1       2.283  -1.407   0.677  1.00  0.00     0.034 C 
BRANCH   7   9
HETATM    9  C   UNL     1       1.286   0.466  -0.660  1.00  0.00     0.172 C 
BRANCH   9  10
HETATM   10  N   UNL     1       1.517   1.709  -1.374  1.00  0.00    -0.302 N 
HETATM   11  C   UNL     1       1.850   1.852  -2.689  1.00  0.00     0.111 A 
HETATM   12  C   UNL     1       1.981   3.206  -2.900  1.00  0.00     0.037 A 
HETATM   13  C   UNL     1       1.706   3.790  -1.650  1.00  0.00     0.108 A 
HETATM   14  N   UNL     1       1.430   2.881  -0.711  1.00  0.00    -0.310 N 
ATOM     15  HN  UNL     1       1.207   3.036   0.272  1.00  0.00     0.186 HD
ENDBRANCH   9  10
ENDBRANCH   7   9
ENDBRANCH   1   7
BRANCH   4  16
HETATM   16  C   UNL     1       6.245   2.229   2.244  1.00  0.00     0.131 C 
BRANCH  16  17
HETATM   17  C   UNL     1       6.501   3.668   2.673  1.00  0.00     0.029 C 
HETATM   18  C   UNL     1       6.224   4.708   1.597  1.00  0.00     0.034 C 
HETATM   19  C   UNL     1       7.284   5.774   1.815  1.00  0.00     0.168 C 
HETATM   20  O   UNL     1       8.138   5.328   2.875  1.00  0.00    -0.391 OA
HETATM   21  C   UNL     1       7.963   3.915   2.996  1.00  0.00     0.173 C 
ENDBRANCH  16  17
ENDBRANCH   4  16
TORSDOF 5
