REMARK  6 active torsions:
REMARK  status: ('A' for Active; 'I' for Inactive)
REMARK    1  A    between atoms: N_2  and  C_13 
REMARK    2  A    between atoms: C_6  and  N_7 
REMARK    3  A    between atoms: C_13  and  C_18 
REMARK    4  A    between atoms: C_18  and  C_24 
REMARK    5  A    between atoms: C_18  and  C_27 
REMARK    6  A    between atoms: C_27  and  O_29 
ROOT
HETATM    1  C   UNL     1       0.308  -0.776  -0.298  1.00  0.00     0.117 A 
HETATM    2  N   UNL     1       1.531   1.043  -0.374  1.00  0.00    -0.327 N 
HETATM    3  C   UNL     1       0.245   0.593  -0.524  1.00  0.00     0.140 A 
HETATM    4  N   UNL     1       1.624  -1.162  -0.117  1.00  0.00    -0.346 N 
ATOM      5  HN  UNL     1       1.975  -2.108   0.032  1.00  0.00     0.167 HD
HETATM    6  C   UNL     1      -0.930  -1.472  -0.243  1.00  0.00     0.114 A 
HETATM    7  C   UNL     1       2.328  -0.051  -0.177  1.00  0.00     0.185 A 
HETATM    8  N   UNL     1      -0.841   1.346  -0.748  1.00  0.00    -0.336 N 
ATOM      9  HN  UNL     1      -0.826   2.355  -0.897  1.00  0.00     0.168 HD
HETATM   10  N   UNL     1      -2.051  -0.728  -0.515  1.00  0.00    -0.341 N 
ATOM     11  HN  UNL     1      -2.965  -1.179  -0.540  1.00  0.00     0.167 HD
HETATM   12  C   UNL     1      -1.950   0.593  -0.749  1.00  0.00     0.183 A 
ENDROOT
BRANCH   6  13
HETATM   13  N   UNL     1      -1.087  -2.846   0.107  1.00  0.00    -0.267 NA
HETATM   14  C   UNL     1      -2.508  -3.222   0.101  1.00  0.00     0.108 C 
HETATM   15  C   UNL     1      -2.709  -4.714   0.400  1.00  0.00    -0.004 C 
HETATM   16  C   UNL     1      -2.215  -5.600  -0.768  1.00  0.00     0.115 C 
HETATM   17  C   UNL     1      -4.217  -5.000   0.487  1.00  0.00     0.133 C 
HETATM   18  C   UNL     1      -2.006  -5.063   1.726  1.00  0.00     0.014 C 
HETATM   19  C   UNL     1      -3.337  -6.571  -1.013  1.00  0.00     0.218 C 
HETATM   20  N   UNL     1      -4.425  -6.192  -0.267  1.00  0.00    -0.360 N 
HETATM   21  O   UNL     1      -3.314  -7.528  -1.763  1.00  0.00    -0.274 OA
HETATM   22  H   UNL     1      -5.307  -6.681  -0.370  1.00  0.00     0.162 HD
HETATM   23  C   UNL     1      -0.536  -4.645   1.715  1.00  0.00     0.016 C 
HETATM   24  C   UNL     1      -0.358  -3.172   1.343  1.00  0.00     0.097 C 
ENDBRANCH   6  13
BRANCH   2  25
HETATM   25  C   UNL     1       1.892   2.416  -0.109  1.00  0.00     0.138 C 
BRANCH  25  26
HETATM   26  C   UNL     1       2.897   3.083  -1.071  1.00  0.00     0.034 C 
BRANCH  26  27
HETATM   27  C   UNL     1       2.378   3.159  -2.532  1.00  0.00     0.019 C 
HETATM   28  C   UNL     1       3.373   3.806  -3.500  1.00  0.00     0.172 C 
HETATM   29  O   UNL     1       2.801   5.058  -3.892  1.00  0.00    -0.391 OA
HETATM   30  C   UNL     1       1.386   4.867  -3.904  1.00  0.00     0.168 C 
HETATM   31  C   UNL     1       1.101   3.975  -2.716  1.00  0.00     0.033 C 
ENDBRANCH  26  27
BRANCH  26  32
HETATM   32  C   UNL     1       3.275   4.460  -0.486  1.00  0.00     0.170 C 
BRANCH  32  33
HETATM   33  O   UNL     1       3.915   4.283   0.775  1.00  0.00    -0.400 OA
HETATM   34  H   UNL     1       3.235   4.306   1.469  1.00  0.00     0.209 HD
ENDBRANCH  32  33
ENDBRANCH  26  32
ENDBRANCH  25  26
ENDBRANCH   2  25
TORSDOF 6
