REMARK  3 active torsions:
REMARK  status: ('A' for Active; 'I' for Inactive)
REMARK    1  A    between atoms: N_5  and  C_6 
REMARK    2  A    between atoms: C_6  and  C_7 
REMARK    3  A    between atoms: C_7  and  O_8 
ROOT
HETATM    1  C   UNL     1       1.591  -1.105   1.176  1.00  0.00     0.161 C 
HETATM    2  N   UNL     1       2.598  -0.397   0.439  1.00  0.00    -0.302 N 
HETATM    3  C   UNL     1       3.640   0.380   0.993  1.00  0.00     0.329 A 
HETATM    4  O   UNL     1       3.843   0.604   2.177  1.00  0.00    -0.246 OA
HETATM    5  N   UNL     1       4.409   0.845  -0.097  1.00  0.00    -0.294 N 
HETATM    6  C   UNL     1       3.857   0.342  -1.287  1.00  0.00     0.066 A 
HETATM    7  C   UNL     1       4.255   0.502  -2.598  1.00  0.00     0.032 A 
HETATM    8  C   UNL     1       3.487  -0.123  -3.587  1.00  0.00     0.002 A 
HETATM    9  C   UNL     1       2.359  -0.897  -3.248  1.00  0.00     0.002 A 
HETATM   10  C   UNL     1       1.972  -1.055  -1.915  1.00  0.00     0.032 A 
HETATM   11  C   UNL     1       2.737  -0.421  -0.954  1.00  0.00     0.065 A 
ENDROOT
BRANCH   5  12
HETATM   12  C   UNL     1       5.639   1.609   0.013  1.00  0.00     0.171 C 
BRANCH  12  13
HETATM   13  C   UNL     1       5.468   3.140  -0.168  1.00  0.00     0.074 C 
HETATM   14  C   UNL     1       4.656   3.796   0.962  1.00  0.00     0.039 C 
HETATM   15  C   UNL     1       4.507   5.306   0.747  1.00  0.00     0.003 C 
HETATM   16  C   UNL     1       5.850   6.007   0.557  1.00  0.00     0.000 C 
HETATM   17  C   UNL     1       6.732   5.324  -0.484  1.00  0.00     0.003 C 
HETATM   18  C   UNL     1       6.851   3.818  -0.238  1.00  0.00     0.039 C 
BRANCH  13  19
HETATM   19  O   UNL     1       4.816   3.393  -1.422  1.00  0.00    -0.388 OA
HETATM   20  H   UNL     1       3.915   3.029  -1.342  1.00  0.00     0.210 HD
ENDBRANCH  13  19
ENDBRANCH  12  13
ENDBRANCH   5  12
TORSDOF 3
