REMARK  4 active torsions:
REMARK  status: ('A' for Active; 'I' for Inactive)
REMARK    1  A    between atoms: C_8  and  N_9 
REMARK       I    between atoms: N_9  and  C_10 
REMARK       I    between atoms: C_10  and  N_12 
REMARK    2  A    between atoms: N_12  and  C_13 
REMARK    3  A    between atoms: C_13  and  C_14 
REMARK    4  A    between atoms: C_14  and  C_15 
ROOT
HETATM    1  N   UNL     1       2.067  -2.485   0.818  1.00  0.00    -0.306 N 
HETATM    2  C   UNL     1       0.697  -2.575   0.725  1.00  0.00     0.320 C 
HETATM    3  O   UNL     1      -0.094  -1.754   1.176  1.00  0.00    -0.247 OA
HETATM    4  N   UNL     1       0.262  -3.724   0.096  1.00  0.00    -0.343 N 
HETATM    5  H   UNL     1       2.627  -3.062   0.206  1.00  0.00     0.171 HD
HETATM    6  H   UNL     1       0.865  -4.102  -0.619  1.00  0.00     0.164 HD
ENDROOT
BRANCH   1   7
HETATM    7  C   UNL     1       2.752  -1.479   1.550  1.00  0.00     0.077 A 
HETATM    8  C   UNL     1       4.100  -1.246   1.292  1.00  0.00     0.158 A 
HETATM    9  F   UNL     1       4.755  -1.959   0.362  1.00  0.00    -0.202 F 
HETATM   10  C   UNL     1       4.754  -0.242   1.990  1.00  0.00     0.132 A 
HETATM   11  N   UNL     1       4.164   0.528   2.936  1.00  0.00    -0.372 N 
HETATM   12  C   UNL     1       2.863   0.273   3.185  1.00  0.00     0.090 A 
ATOM     13  HN  UNL     1       4.675   1.259   3.432  1.00  0.00     0.164 HD
HETATM   14  C   UNL     1       2.130  -0.707   2.534  1.00  0.00     0.050 A 
ENDBRANCH   1   7
BRANCH   4  15
HETATM   15  C   UNL     1      -1.173  -3.859  -0.107  1.00  0.00     0.127 C 
BRANCH  15  16
HETATM   16  C   UNL     1      -1.637  -5.306  -0.217  1.00  0.00     0.051 C 
BRANCH  16  17
HETATM   17  C   UNL     1      -3.173  -5.360  -0.329  1.00  0.00     0.123 C 
HETATM   18  C   UNL     1      -3.730  -6.782  -0.418  1.00  0.00     0.032 C 
HETATM   19  C   UNL     1      -3.449  -7.413  -1.776  1.00  0.00     0.004 C 
HETATM   20  C   UNL     1      -3.910  -6.489  -2.897  1.00  0.00     0.026 C 
HETATM   21  C   UNL     1      -3.365  -5.080  -2.713  1.00  0.00     0.168 C 
HETATM   22  O   UNL     1      -3.665  -4.568  -1.417  1.00  0.00    -0.386 OA
ENDBRANCH  16  17
ENDBRANCH  15  16
ENDBRANCH   4  15
TORSDOF 4
