REMARK  5 active torsions:
REMARK  status: ('A' for Active; 'I' for Inactive)
REMARK    1  A    between atoms: O_2  and  C_3 
REMARK    2  A    between atoms: C_3  and  C_4 
REMARK    3  A    between atoms: C_4  and  O_5 
REMARK    4  A    between atoms: O_5  and  C_6 
REMARK    5  A    between atoms: C_9  and  N_10 
REMARK       I    between atoms: N_10  and  C_11 
REMARK       I    between atoms: C_11  and  N_13 
ROOT
HETATM    1  C   UNL     1       6.616   0.217  -2.423  1.00  0.00     0.141 A 
HETATM    2  C   UNL     1       7.335  -0.959  -2.322  1.00  0.00     0.058 A 
HETATM    3  C   UNL     1       8.574  -1.035  -2.951  1.00  0.00     0.035 A 
HETATM    4  C   UNL     1       9.078   0.059  -3.656  1.00  0.00     0.051 A 
HETATM    5  C   UNL     1       8.273   1.200  -3.680  1.00  0.00     0.119 A 
HETATM    6  N   UNL     1       7.052   1.309  -3.083  1.00  0.00    -0.345 N 
ATOM      7  HN  UNL     1       6.501   2.166  -3.133  1.00  0.00     0.167 HD
ENDROOT
BRANCH   4   8
HETATM    8  N   UNL     1      10.344   0.058  -4.306  1.00  0.00    -0.307 N 
HETATM    9  C   UNL     1      11.092  -1.070  -4.573  1.00  0.00     0.322 C 
HETATM   10  O   UNL     1      10.672  -2.209  -4.372  1.00  0.00    -0.247 OA
HETATM   11  N   UNL     1      12.366  -0.880  -5.087  1.00  0.00    -0.334 N 
HETATM   12  C   UNL     1      13.065   0.379  -5.351  1.00  0.00     0.128 C 
HETATM   13  C   UNL     1      13.205  -2.076  -5.210  1.00  0.00     0.128 C 
HETATM   14  C   UNL     1      13.758   0.348  -6.719  1.00  0.00     0.024 C 
HETATM   15  C   UNL     1      14.639  -0.896  -6.930  1.00  0.00    -0.015 C 
HETATM   16  C   UNL     1      15.941  -0.824  -6.129  1.00  0.00     0.010 C 
HETATM   17  C   UNL     1      13.841  -2.160  -6.591  1.00  0.00     0.024 C 
HETATM   18  H   UNL     1      10.626   0.922  -4.734  1.00  0.00     0.170 HD
ENDBRANCH   4   8
BRANCH   1  19
HETATM   19  O   UNL     1       5.458   0.260  -1.678  1.00  0.00    -0.334 OA
BRANCH  19  20
HETATM   20  C   UNL     1       4.461   1.137  -2.198  1.00  0.00     0.203 C 
BRANCH  20  21
HETATM   21  C   UNL     1       3.327   1.176  -1.173  1.00  0.00     0.193 C 
BRANCH  21  22
HETATM   22  O   UNL     1       2.243   1.965  -1.658  1.00  0.00    -0.394 OA
HETATM   23  C   UNL     1       1.186   2.029  -0.709  1.00  0.00     0.201 C 
ENDBRANCH  21  22
ENDBRANCH  20  21
ENDBRANCH  19  20
ENDBRANCH   1  19
TORSDOF 5
