REMARK  5 active torsions:
REMARK  status: ('A' for Active; 'I' for Inactive)
REMARK    1  A    between atoms: C_2  and  O_3 
REMARK    2  A    between atoms: O_3  and  C_4 
REMARK    3  A    between atoms: C_4  and  C_5 
REMARK    4  A    between atoms: C_5  and  N_6 
REMARK    5  A    between atoms: C_7  and  N_19 
ROOT
HETATM    1  N   UNL     1       6.270  -1.513  -2.158  1.00  0.00    -0.170 N 
HETATM    2  C   UNL     1       7.028  -0.345  -2.181  1.00  0.00     0.708 C 
HETATM    3  N   UNL     1       8.329  -0.634  -2.102  1.00  0.00    -0.172 N 
ATOM      4  HN  UNL     1       9.105   0.022  -2.016  1.00  0.00     0.186 HD
HETATM    5  C   UNL     1       8.397  -2.003  -2.162  1.00  0.00     0.160 A 
HETATM    6  N   UNL     1       9.532  -2.800  -2.160  1.00  0.00    -0.287 N 
HETATM    7  C   UNL     1      10.873  -2.270  -2.159  1.00  0.00     0.163 C 
HETATM    8  C   UNL     1       9.388  -4.187  -2.172  1.00  0.00     0.330 A 
HETATM    9  O   UNL     1      10.332  -4.981  -2.164  1.00  0.00    -0.246 OA
HETATM   10  N   UNL     1       8.105  -4.694  -2.204  1.00  0.00    -0.273 N 
HETATM   11  C   UNL     1       6.945  -3.971  -2.311  1.00  0.00     0.280 A 
HETATM   12  O   UNL     1       5.860  -4.523  -2.463  1.00  0.00    -0.265 OA
HETATM   13  C   UNL     1       7.155  -2.564  -2.233  1.00  0.00     0.164 A 
HETATM   14  H   UNL     1       8.024  -5.696  -2.235  1.00  0.00     0.173 HD
ENDROOT
BRANCH   2  15
HETATM   15  N   UNL     1       6.505   0.963  -2.319  1.00  0.00    -0.090 N 
HETATM   16  N   UNL     1       5.278   1.089  -2.897  1.00  0.00    -0.284 N 
HETATM   17  C   UNL     1       5.067   2.401  -3.017  1.00  0.00     0.031 A 
ATOM     18  HN  UNL     1       4.650   0.336  -3.180  1.00  0.00     0.188 HD
HETATM   19  C   UNL     1       3.795   2.912  -3.591  1.00  0.00     0.070 C 
HETATM   20  C   UNL     1       6.151   3.161  -2.527  1.00  0.00    -0.013 A 
HETATM   21  C   UNL     1       6.273   4.643  -2.498  1.00  0.00     0.052 C 
HETATM   22  C   UNL     1       7.048   2.215  -2.047  1.00  0.00     0.056 A 
HETATM   23  C   UNL     1       8.314   2.438  -1.305  1.00  0.00     0.072 C 
ENDBRANCH   2  15
BRANCH   1  24
HETATM   24  C   UNL     1       4.842  -1.676  -1.922  1.00  0.00     0.174 C 
BRANCH  24  25
HETATM   25  C   UNL     1       4.515  -2.391  -0.608  1.00  0.00     0.188 C 
BRANCH  25  26
HETATM   26  O   UNL     1       5.075  -1.662   0.486  1.00  0.00    -0.390 OA
BRANCH  26  27
HETATM   27  C   UNL     1       4.906  -2.351   1.722  1.00  0.00     0.163 C 
HETATM   28  C   UNL     1       5.561  -1.529   2.811  1.00  0.00     0.033 C 
ENDBRANCH  26  27
ENDBRANCH  25  26
ENDBRANCH  24  25
ENDBRANCH   1  24
TORSDOF 5
