REMARK  5 active torsions:
REMARK  status: ('A' for Active; 'I' for Inactive)
REMARK    1  A    between atoms: N_5  and  C_6 
REMARK    2  A    between atoms: C_6  and  C_7 
REMARK    3  A    between atoms: C_7  and  O_8 
REMARK    4  A    between atoms: C_7  and  C_9 
REMARK    5  A    between atoms: C_9  and  N_10 
ROOT
HETATM    1  N   UNL     1       7.297   1.066  -4.821  1.00  0.00    -0.254 N 
HETATM    2  N   UNL     1       7.562   0.525  -6.047  1.00  0.00    -0.300 N 
ATOM      3  HN  UNL     1       7.549  -0.485  -6.188  1.00  0.00     0.187 HD
HETATM    4  C   UNL     1       7.830   1.329  -7.026  1.00  0.00     0.029 A 
HETATM    5  C   UNL     1       8.180   0.679  -8.346  1.00  0.00     0.070 C 
HETATM    6  C   UNL     1       7.803   2.816  -6.931  1.00  0.00    -0.012 A 
HETATM    7  C   UNL     1       7.973   3.669  -8.152  1.00  0.00     0.052 C 
HETATM    8  C   UNL     1       7.577   3.317  -5.703  1.00  0.00     0.121 A 
HETATM    9  C   UNL     1       7.466   4.718  -5.477  1.00  0.00     0.105 C 
HETATM   10  N   UNL     1       7.380   5.870  -5.366  1.00  0.00    -0.191 NA
HETATM   11  C   UNL     1       7.358   2.426  -4.542  1.00  0.00     0.283 A 
HETATM   12  O   UNL     1       7.197   2.884  -3.408  1.00  0.00    -0.265 OA
ENDROOT
BRANCH   1  13
HETATM   13  C   UNL     1       6.734   0.156  -3.823  1.00  0.00     0.186 C 
BRANCH  13  14
HETATM   14  C   UNL     1       5.190   0.213  -3.841  1.00  0.00     0.166 C 
BRANCH  14  15
HETATM   15  C   UNL     1       4.607  -0.722  -2.749  1.00  0.00     0.305 C 
BRANCH  15  16
HETATM   16  N   UNL     1       3.132  -0.859  -2.713  1.00  0.00     0.091 N 
HETATM   17  C   UNL     1       2.406   0.400  -2.477  1.00  0.00     0.273 C 
HETATM   18  C   UNL     1       2.653   0.981  -1.081  1.00  0.00     0.034 C 
HETATM   19  C   UNL     1       2.264  -0.015   0.021  1.00  0.00    -0.015 C 
HETATM   20  C   UNL     1       0.742  -0.095   0.173  1.00  0.00     0.010 C 
HETATM   21  C   UNL     1       2.879  -1.397  -0.259  1.00  0.00     0.034 C 
HETATM   22  C   UNL     1       2.703  -1.854  -1.714  1.00  0.00     0.273 C 
ENDBRANCH  15  16
ENDBRANCH  14  15
BRANCH  14  23
HETATM   23  O   UNL     1       4.764   1.571  -3.643  1.00  0.00    -0.392 OA
HETATM   24  H   UNL     1       5.284   1.955  -2.911  1.00  0.00     0.210 HD
ENDBRANCH  14  23
ENDBRANCH  13  14
ENDBRANCH   1  13
TORSDOF 5
