REMARK  5 active torsions:
REMARK  status: ('A' for Active; 'I' for Inactive)
REMARK    1  A    between atoms: C_2  and  O_3 
REMARK    2  A    between atoms: O_3  and  C_4 
REMARK    3  A    between atoms: C_10  and  N_11 
REMARK       I    between atoms: N_11  and  C_12 
REMARK       I    between atoms: C_12  and  N_14 
REMARK    4  A    between atoms: N_14  and  C_15 
REMARK    5  A    between atoms: N_19  and  S_21 
ROOT
HETATM    1  N   UNL     1       5.170  -1.589  -0.208  1.00  0.00    -0.305 N 
HETATM    2  C   UNL     1       3.826  -1.499  -0.491  1.00  0.00     0.321 C 
HETATM    3  O   UNL     1       3.225  -0.456  -0.739  1.00  0.00    -0.247 OA
HETATM    4  N   UNL     1       3.202  -2.724  -0.481  1.00  0.00    -0.337 N 
HETATM    5  H   UNL     1       5.648  -2.381  -0.622  1.00  0.00     0.171 HD
HETATM    6  H   UNL     1       3.548  -3.329   0.253  1.00  0.00     0.164 HD
ENDROOT
BRANCH   1   7
HETATM    7  C   UNL     1       5.965  -0.441   0.043  1.00  0.00     0.087 A 
HETATM    8  C   UNL     1       7.257  -0.293  -0.469  1.00  0.00     0.169 A 
HETATM    9  N   UNL     1       8.069   0.751  -0.166  1.00  0.00    -0.345 N 
HETATM   10  C   UNL     1       7.563   1.728   0.608  1.00  0.00     0.090 A 
ATOM     11  HN  UNL     1       9.027   0.793  -0.512  1.00  0.00     0.167 HD
HETATM   12  C   UNL     1       6.278   1.710   1.110  1.00  0.00     0.019 A 
HETATM   13  C   UNL     1       5.477   0.602   0.836  1.00  0.00     0.035 A 
BRANCH   8  14
HETATM   14  O   UNL     1       7.707  -1.176  -1.445  1.00  0.00    -0.334 OA
BRANCH  14  15
HETATM   15  C   UNL     1       8.504  -0.443  -2.395  1.00  0.00     0.173 C 
HETATM   16  C   UNL     1       8.968  -1.326  -3.536  1.00  0.00     0.034 C 
ENDBRANCH  14  15
ENDBRANCH   8  14
ENDBRANCH   1   7
BRANCH   4  17
HETATM   17  C   UNL     1       1.760  -2.810  -0.770  1.00  0.00     0.100 C 
HETATM   18  C   UNL     1       1.215  -4.210  -0.462  1.00  0.00     0.028 C 
HETATM   19  C   UNL     1       1.776  -5.241  -1.437  1.00  0.00     0.018 C 
HETATM   20  C   UNL     1       1.490  -4.865  -2.888  1.00  0.00     0.107 C 
HETATM   21  N   UNL     1       1.977  -3.489  -3.181  1.00  0.00    -0.209 NA
HETATM   22  C   UNL     1       1.417  -2.465  -2.237  1.00  0.00     0.132 C 
BRANCH  21  23
HETATM   23  S   UNL     1       1.835  -3.048  -4.832  1.00  0.00     0.207 S 
HETATM   24  O   UNL     1       2.063  -4.221  -5.638  1.00  0.00    -0.212 OA
HETATM   25  O   UNL     1       0.623  -2.259  -4.980  1.00  0.00    -0.212 OA
HETATM   26  C   UNL     1       3.248  -1.987  -5.028  1.00  0.00     0.180 C 
ENDBRANCH  21  23
ENDBRANCH   4  17
TORSDOF 5
