REMARK  8 active torsions:
REMARK  status: ('A' for Active; 'I' for Inactive)
REMARK    1  A    between atoms: C_2  and  N_7 
REMARK    2  A    between atoms: N_3  and  C_14 
REMARK    3  A    between atoms: C_13  and  C_14 
REMARK    4  A    between atoms: C_13  and  C_21 
REMARK    5  A    between atoms: C_16  and  C_24 
REMARK    6  A    between atoms: C_21  and  O_22 
REMARK    7  A    between atoms: O_23  and  C_24 
REMARK    8  A    between atoms: O_23  and  C_26 
ROOT
HETATM    1  C   UNL     1       0.357  -0.845  -0.021  1.00  0.00     0.122 A 
HETATM    2  C   UNL     1      -0.837  -1.610  -0.109  1.00  0.00     0.135 A 
HETATM    3  N   UNL     1       1.501   1.019   0.085  1.00  0.00    -0.326 N 
HETATM    4  C   UNL     1       0.224   0.537  -0.021  1.00  0.00     0.140 A 
HETATM    5  N   UNL     1       1.697  -1.187   0.081  1.00  0.00    -0.346 N 
ATOM      6  HN  UNL     1       2.092  -2.126   0.124  1.00  0.00     0.167 HD
HETATM    7  C   UNL     1       2.350  -0.048   0.110  1.00  0.00     0.185 A 
HETATM    8  N   UNL     1      -2.005  -0.896  -0.160  1.00  0.00    -0.337 N 
ATOM      9  HN  UNL     1      -2.899  -1.385  -0.202  1.00  0.00     0.168 HD
HETATM   10  N   UNL     1      -0.903   1.258  -0.092  1.00  0.00    -0.336 N 
ATOM     11  HN  UNL     1      -0.941   2.277  -0.097  1.00  0.00     0.168 HD
HETATM   12  C   UNL     1      -1.976   0.453  -0.155  1.00  0.00     0.183 A 
ENDROOT
BRANCH   2  13
HETATM   13  N   UNL     1      -0.893  -3.007  -0.107  1.00  0.00    -0.358 N 
HETATM   14  C   UNL     1      -2.236  -3.626  -0.147  1.00  0.00     0.109 C 
HETATM   15  C   UNL     1      -2.120  -5.048   0.439  1.00  0.00     0.027 C 
HETATM   16  C   UNL     1      -1.048  -5.881  -0.261  1.00  0.00     0.004 C 
HETATM   17  C   UNL     1       0.291  -5.152  -0.263  1.00  0.00     0.020 C 
HETATM   18  C   UNL     1       0.180  -3.727  -0.800  1.00  0.00     0.125 C 
BRANCH  14  19
HETATM   19  C   UNL     1      -2.844  -3.625  -1.570  1.00  0.00     0.193 C 
BRANCH  19  20
HETATM   20  O   UNL     1      -4.157  -4.200  -1.568  1.00  0.00    -0.389 OA
BRANCH  20  21
HETATM   21  C   UNL     1      -4.688  -4.273  -2.890  1.00  0.00     0.163 C 
HETATM   22  C   UNL     1      -6.076  -4.878  -2.829  1.00  0.00     0.033 C 
ENDBRANCH  20  21
ENDBRANCH  19  20
ENDBRANCH  14  19
ENDBRANCH   2  13
BRANCH   3  23
HETATM   23  C   UNL     1       1.876   2.422   0.087  1.00  0.00     0.147 C 
BRANCH  23  24
HETATM   24  C   UNL     1       2.013   3.023   1.479  1.00  0.00     0.040 C 
HETATM   25  C   UNL     1       0.735   3.137   2.337  1.00  0.00     0.183 C 
HETATM   26  O   UNL     1       0.976   4.552   2.551  1.00  0.00    -0.389 OA
HETATM   27  C   UNL     1       1.927   4.562   1.456  1.00  0.00     0.183 C 
BRANCH  24  28
HETATM   28  C   UNL     1       3.195   2.497   2.286  1.00  0.00     0.179 C 
BRANCH  28  29
HETATM   29  O   UNL     1       4.399   2.709   1.557  1.00  0.00    -0.400 OA
HETATM   30  H   UNL     1       4.633   1.884   1.100  1.00  0.00     0.209 HD
ENDBRANCH  28  29
ENDBRANCH  24  28
ENDBRANCH  23  24
ENDBRANCH   3  23
TORSDOF 8
