REMARK  3 active torsions:
REMARK  status: ('A' for Active; 'I' for Inactive)
REMARK       I    between atoms: C_2  and  N_4 
REMARK       I    between atoms: N_7  and  C_10 
REMARK       I    between atoms: C_10  and  N_12 
REMARK    1  A    between atoms: N_12  and  C_13 
REMARK    2  A    between atoms: C_13  and  C_14 
REMARK    3  A    between atoms: C_14  and  C_15 
ROOT
HETATM    1  C   UNL     1       2.361  -1.175   0.890  1.00  0.00     0.117 C 
HETATM    2  C   UNL     1       2.637  -0.102  -0.136  1.00  0.00     0.215 C 
HETATM    3  O   UNL     1       2.395   1.077   0.116  1.00  0.00    -0.274 OA
HETATM    4  N   UNL     1       3.126  -0.523  -1.362  1.00  0.00    -0.349 N 
HETATM    5  C   UNL     1       3.426   0.474  -2.400  1.00  0.00     0.145 C 
HETATM    6  C   UNL     1       3.047  -0.021  -3.812  1.00  0.00     0.147 C 
HETATM    7  N   UNL     1       3.518  -1.394  -4.062  1.00  0.00    -0.331 N 
HETATM    8  C   UNL     1       3.167  -2.354  -3.013  1.00  0.00     0.147 C 
HETATM    9  C   UNL     1       3.640  -1.868  -1.642  1.00  0.00     0.145 C 
HETATM   10  C   UNL     1       4.277  -1.839  -5.123  1.00  0.00     0.318 C 
HETATM   11  O   UNL     1       4.751  -2.972  -5.170  1.00  0.00    -0.247 OA
HETATM   12  N   UNL     1       4.478  -0.933  -6.131  1.00  0.00    -0.343 N 
HETATM   13  H   UNL     1       3.680  -0.338  -6.300  1.00  0.00     0.164 HD
ENDROOT
BRANCH  12  14
HETATM   14  C   UNL     1       5.206  -1.358  -7.322  1.00  0.00     0.130 C 
BRANCH  14  15
HETATM   15  C   UNL     1       5.438  -0.203  -8.289  1.00  0.00     0.077 C 
BRANCH  15  16
HETATM   16  C   UNL     1       6.219  -0.603  -9.498  1.00  0.00     0.018 A 
HETATM   17  C   UNL     1       7.594  -0.576  -9.634  1.00  0.00     0.076 A 
HETATM   18  S   UNL     1       8.043  -1.069 -11.211  1.00  0.00    -0.087 SA
HETATM   19  C   UNL     1       6.384  -1.287 -11.602  1.00  0.00     0.046 A 
HETATM   20  C   UNL     1       5.983  -1.740 -12.963  1.00  0.00     0.076 C 
HETATM   21  N   UNL     1       5.536  -1.019 -10.631  1.00  0.00    -0.357 N 
ATOM     22  HN  UNL     1       4.522  -1.105 -10.702  1.00  0.00     0.166 HD
ENDBRANCH  15  16
ENDBRANCH  14  15
ENDBRANCH  12  14
TORSDOF 3
