REMARK  3 active torsions:
REMARK  status: ('A' for Active; 'I' for Inactive)
REMARK       I    between atoms: C_2  and  N_3 
REMARK       I    between atoms: C_2  and  N_12 
REMARK    1  A    between atoms: N_3  and  C_4 
REMARK    2  A    between atoms: C_4  and  C_5 
REMARK    3  A    between atoms: N_12  and  C_13 
ROOT
HETATM    1  O   UNL     1       0.938   1.225   0.069  1.00  0.00    -0.247 OA
HETATM    2  C   UNL     1       2.131   0.958   0.132  1.00  0.00     0.320 C 
HETATM    3  N   UNL     1       2.930   0.851  -0.994  1.00  0.00    -0.342 N 
HETATM    4  N   UNL     1       2.854   0.759   1.286  1.00  0.00    -0.306 N 
HETATM    5  H   UNL     1       3.654   0.150  -0.914  1.00  0.00     0.164 HD
HETATM    6  H   UNL     1       3.859   0.817   1.232  1.00  0.00     0.171 HD
ENDROOT
BRANCH   3   7
HETATM    7  C   UNL     1       2.308   0.989  -2.296  1.00  0.00     0.130 C 
BRANCH   7   8
HETATM    8  C   UNL     1       3.301   1.393  -3.386  1.00  0.00     0.018 C 
HETATM    9  C   UNL     1       3.946   2.772  -3.124  1.00  0.00     0.022 C 
HETATM   10  C   UNL     1       4.189   3.512  -4.441  1.00  0.00     0.141 C 
HETATM   11  S   UNL     1       3.679   2.431  -5.755  1.00  0.00     0.144 S 
HETATM   12  O   UNL     1       2.889   3.172  -6.713  1.00  0.00    -0.228 OA
HETATM   13  O   UNL     1       4.811   1.614  -6.144  1.00  0.00    -0.228 OA
HETATM   14  C   UNL     1       2.606   1.454  -4.744  1.00  0.00     0.146 C 
ENDBRANCH   7   8
ENDBRANCH   3   7
BRANCH   4  15
HETATM   15  C   UNL     1       2.282   0.752   2.545  1.00  0.00     0.070 A 
HETATM   16  C   UNL     1       0.930   0.698   2.952  1.00  0.00     0.138 A 
HETATM   17  N   UNL     1       0.797   0.720   4.282  1.00  0.00    -0.310 N 
HETATM   18  N   UNL     1       2.061   0.803   4.723  1.00  0.00    -0.310 N 
ATOM     19  HN  UNL     1      -0.062   0.683   4.831  1.00  0.00     0.186 HD
HETATM   20  C   UNL     1       2.991   0.797   3.722  1.00  0.00     0.138 A 
HETATM   21  H   UNL     1       2.214   0.862   5.725  1.00  0.00     0.186 HD
ENDBRANCH   4  15
TORSDOF 3
