REMARK  5 active torsions:
REMARK  status: ('A' for Active; 'I' for Inactive)
REMARK    1  A    between atoms: C_2  and  C_3 
REMARK       I    between atoms: C_2  and  N_13 
REMARK    2  A    between atoms: C_3  and  N_4 
REMARK    3  A    between atoms: N_4  and  C_5 
REMARK    4  A    between atoms: C_5  and  C_6 
REMARK    5  A    between atoms: C_6  and  N_7 
ROOT
HETATM    1  O   UNL     1       1.933   0.968  -0.447  1.00  0.00    -0.271 OA
HETATM    2  C   UNL     1       2.228  -0.025   0.217  1.00  0.00     0.248 C 
HETATM    3  N   UNL     1       3.149  -0.036   1.277  1.00  0.00    -0.341 N 
HETATM    4  C   UNL     1       3.538  -1.267   1.994  1.00  0.00     0.152 C 
HETATM    5  C   UNL     1       5.023  -1.284   2.344  1.00  0.00     0.188 C 
HETATM    6  O   UNL     1       5.401  -0.105   3.051  1.00  0.00    -0.382 OA
HETATM    7  C   UNL     1       5.123   1.070   2.266  1.00  0.00     0.144 C 
HETATM    8  C   UNL     1       5.655   2.262   3.053  1.00  0.00     0.034 C 
HETATM    9  C   UNL     1       5.330   3.578   2.364  1.00  0.00     0.003 C 
HETATM   10  C   UNL     1       3.832   3.714   2.129  1.00  0.00     0.002 C 
HETATM   11  C   UNL     1       3.284   2.543   1.316  1.00  0.00     0.028 C 
HETATM   12  C   UNL     1       3.603   1.194   1.973  1.00  0.00     0.116 C 
ENDROOT
BRANCH   2  13
HETATM   13  C   UNL     1       1.625  -1.392  -0.107  1.00  0.00     0.372 C 
BRANCH  13  14
HETATM   14  N   UNL     1       0.278  -1.326  -0.692  1.00  0.00     0.093 N 
HETATM   15  H   UNL     1       0.335  -0.810  -1.573  1.00  0.00     0.316 HD
BRANCH  14  16
HETATM   16  C   UNL     1      -0.235  -2.690  -0.913  1.00  0.00     0.291 C 
BRANCH  16  17
HETATM   17  C   UNL     1      -0.380  -3.501   0.386  1.00  0.00     0.178 C 
BRANCH  17  18
HETATM   18  N   UNL     1      -0.875  -4.837   0.144  1.00  0.00    -0.302 N 
HETATM   19  C   UNL     1      -2.169  -5.252   0.219  1.00  0.00     0.111 A 
HETATM   20  C   UNL     1      -2.141  -6.607  -0.007  1.00  0.00     0.037 A 
HETATM   21  C   UNL     1      -0.779  -6.913  -0.190  1.00  0.00     0.108 A 
HETATM   22  N   UNL     1      -0.001  -5.834  -0.099  1.00  0.00    -0.310 N 
ATOM     23  HN  UNL     1       1.013  -5.777  -0.191  1.00  0.00     0.186 HD
ENDBRANCH  17  18
ENDBRANCH  16  17
ENDBRANCH  14  16
ENDBRANCH  13  14
ENDBRANCH   2  13
TORSDOF 5
