REMARK  1 active torsions:
REMARK  status: ('A' for Active; 'I' for Inactive)
REMARK    1  A    between atoms: C_6  and  C_9 
ROOT
HETATM    1  C   UNL     2       0.479   1.422  -0.089  1.00  0.00     0.295 C 
HETATM    2  C   UNL     2       1.220   0.266   0.592  1.00  0.00     0.199 C 
HETATM    3  O   UNL     2       0.644  -0.983   0.241  1.00  0.00    -0.375 OA
HETATM    4  C   UNL     2      -0.722  -1.047   0.627  1.00  0.00     0.218 C 
HETATM    5  C   UNL     2      -1.527   0.112  -0.010  1.00  0.00     0.309 C 
HETATM    6  N   UNL     2      -0.933   1.416   0.306  1.00  0.00     0.088 N 
HETATM    7  H   UNL     2      -1.008   1.611   1.331  1.00  0.00     0.316 HD
ENDROOT
BRANCH   4   8
HETATM    8  C   UNL     2      -0.851  -1.167   2.127  1.00  0.00     0.134 A 
HETATM    9  N   UNL     2      -0.267  -2.147   2.841  1.00  0.00    -0.331 N 
HETATM   10  C   UNL     2      -0.645  -1.865   4.099  1.00  0.00     0.260 A 
ATOM     11  HN  UNL     2       0.318  -2.914   2.509  1.00  0.00     0.168 HD
HETATM   12  O   UNL     2      -1.403  -0.794   4.125  1.00  0.00    -0.232 OA
HETATM   13  N   UNL     2      -1.554  -0.335   2.918  1.00  0.00    -0.245 N 
ATOM     14  HN  UNL     2      -2.092   0.483   2.631  1.00  0.00     0.196 HD
ENDBRANCH   4   8
TORSDOF 1
