REMARK  4 active torsions:
REMARK  status: ('A' for Active; 'I' for Inactive)
REMARK    1  A    between atoms: C_4  and  N_5 
REMARK       I    between atoms: N_5  and  C_6 
REMARK       I    between atoms: C_6  and  N_8 
REMARK    2  A    between atoms: N_8  and  C_9 
REMARK    3  A    between atoms: C_9  and  C_10 
REMARK    4  A    between atoms: C_10  and  C_13 
ROOT
HETATM    1  N   UNL     1       5.175   2.762   0.229  1.00  0.00    -0.308 N 
HETATM    2  C   UNL     1       4.570   3.999   0.336  1.00  0.00     0.320 C 
HETATM    3  O   UNL     1       3.611   4.248   1.057  1.00  0.00    -0.247 OA
HETATM    4  N   UNL     1       5.156   4.963  -0.457  1.00  0.00    -0.342 N 
HETATM    5  H   UNL     1       5.767   2.619  -0.574  1.00  0.00     0.170 HD
HETATM    6  H   UNL     1       5.693   4.654  -1.253  1.00  0.00     0.164 HD
ENDROOT
BRANCH   1   7
HETATM    7  C   UNL     1       4.831   1.653   0.976  1.00  0.00     0.052 A 
HETATM    8  C   UNL     1       4.200   1.711   2.164  1.00  0.00     0.123 A 
HETATM    9  N   UNL     1       3.824   0.576   2.859  1.00  0.00    -0.327 N 
HETATM   10  C   UNL     1       3.092   0.716   4.106  1.00  0.00     0.159 C 
HETATM   11  C   UNL     1       4.051  -0.703   2.366  1.00  0.00     0.247 A 
HETATM   12  C   UNL     1       4.779  -0.773   1.070  1.00  0.00     0.077 A 
HETATM   13  O   UNL     1       3.701  -1.742   2.920  1.00  0.00    -0.268 OA
HETATM   14  C   UNL     1       5.157   0.348   0.437  1.00  0.00     0.036 A 
ENDBRANCH   1   7
BRANCH   4  15
HETATM   15  C   UNL     1       4.499   6.258  -0.539  1.00  0.00     0.133 C 
BRANCH  15  16
HETATM   16  C   UNL     1       5.422   7.473  -0.816  1.00  0.00    -0.028 C 
HETATM   17  C   UNL     1       6.539   7.516   0.247  1.00  0.00     0.016 C 
HETATM   18  C   UNL     1       6.072   7.325  -2.207  1.00  0.00     0.016 C 
BRANCH  16  19
HETATM   19  C   UNL     1       4.529   8.763  -0.800  1.00  0.00    -0.005 C 
HETATM   20  C   UNL     1       5.241  10.097  -1.081  1.00  0.00     0.005 C 
HETATM   21  C   UNL     1       4.445  11.178  -0.344  1.00  0.00     0.000 C 
HETATM   22  C   UNL     1       3.283  10.469   0.333  1.00  0.00     0.000 C 
HETATM   23  C   UNL     1       3.766   9.039   0.504  1.00  0.00     0.005 C 
ENDBRANCH  16  19
ENDBRANCH  15  16
ENDBRANCH   4  15
TORSDOF 4
