REMARK  1 active torsions:
REMARK  status: ('A' for Active; 'I' for Inactive)
REMARK    1  A    between atoms: C_6  and  N_7 
ROOT
HETATM    1  O   UNL     1       1.045  -0.288  -0.054  1.00  0.00    -0.245 OA
HETATM    2  C   UNL     1       2.264  -0.147  -0.022  1.00  0.00     0.341 A 
HETATM    3  N   UNL     1       3.119  -1.210  -0.012  1.00  0.00    -0.250 N 
HETATM    4  N   UNL     1       4.475  -1.149   0.009  1.00  0.00    -0.277 N 
ATOM      5  HN  UNL     1       5.027  -2.006   0.046  1.00  0.00     0.189 HD
HETATM    6  C   UNL     1       5.072   0.020  -0.019  1.00  0.00     0.188 A 
HETATM    7  C   UNL     1       4.179   1.295  -0.095  1.00  0.00     0.294 A 
HETATM    8  O   UNL     1       4.632   2.420  -0.249  1.00  0.00    -0.264 OA
HETATM    9  N   UNL     1       2.835   1.080  -0.009  1.00  0.00    -0.271 N 
HETATM   10  H   UNL     1       2.705  -2.137  -0.005  1.00  0.00     0.192 HD
HETATM   11  H   UNL     1       2.225   1.877  -0.076  1.00  0.00     0.174 HD
ENDROOT
BRANCH   6  12
HETATM   12  N   UNL     1       6.467   0.073   0.018  1.00  0.00    -0.358 N 
HETATM   13  C   UNL     1       7.308   1.277  -0.006  1.00  0.00     0.151 C 
HETATM   14  C   UNL     1       8.240   1.228  -1.227  1.00  0.00     0.187 C 
HETATM   15  O   UNL     1       9.049   0.040  -1.219  1.00  0.00    -0.388 OA
HETATM   16  C   UNL     1       8.220  -1.134  -1.218  1.00  0.00     0.187 C 
HETATM   17  C   UNL     1       7.282  -1.157  -0.003  1.00  0.00     0.151 C 
ENDBRANCH   6  12
TORSDOF 1
