REMARK  7 active torsions:
REMARK  status: ('A' for Active; 'I' for Inactive)
REMARK    1  A    between atoms: C_2  and  C_4 
REMARK    2  A    between atoms: C_7  and  O_8 
REMARK    3  A    between atoms: O_8  and  C_9 
REMARK    4  A    between atoms: C_9  and  C_10 
REMARK    5  A    between atoms: C_10  and  O_11 
REMARK    6  A    between atoms: C_10  and  C_12 
REMARK    7  A    between atoms: C_12  and  N_13 
ROOT
HETATM    1  C   UNL     1       5.535   5.422  -4.837  1.00  0.00     0.161 C 
ENDROOT
BRANCH   1   2
HETATM    2  C   UNL     1       5.257   4.042  -4.218  1.00  0.00     0.209 C 
BRANCH   2   3
HETATM    3  O   UNL     1       6.509   3.374  -4.051  1.00  0.00    -0.349 OA
BRANCH   3   4
HETATM    4  C   UNL     1       6.527   2.169  -3.421  1.00  0.00     0.068 A 
HETATM    5  C   UNL     1       7.686   1.429  -3.658  1.00  0.00     0.037 A 
HETATM    6  C   UNL     1       7.898   0.205  -3.026  1.00  0.00     0.018 A 
HETATM    7  C   UNL     1       6.952  -0.284  -2.123  1.00  0.00     0.009 A 
HETATM    8  C   UNL     1       5.772   0.443  -1.907  1.00  0.00     0.018 A 
HETATM    9  C   UNL     1       5.556   1.668  -2.557  1.00  0.00     0.037 A 
BRANCH   7  10
HETATM   10  C   UNL     1       7.183  -1.540  -1.352  1.00  0.00     0.155 C 
HETATM   11  C   UNL     1       8.503  -2.250  -1.511  1.00  0.00     0.096 C 
HETATM   12  O   UNL     1       6.316  -1.964  -0.592  1.00  0.00    -0.293 OA
ENDBRANCH   7  10
ENDBRANCH   3   4
ENDBRANCH   2   3
ENDBRANCH   1   2
BRANCH   1  13
HETATM   13  O   UNL     1       6.192   6.243  -3.859  1.00  0.00    -0.392 OA
HETATM   14  H   UNL     1       7.157   6.189  -4.014  1.00  0.00     0.210 HD
ENDBRANCH   1  13
BRANCH   1  15
HETATM   15  C   UNL     1       6.372   5.296  -6.124  1.00  0.00     0.168 C 
BRANCH  15  16
HETATM   16  N   UNL     1       6.666   6.571  -6.728  1.00  0.00    -0.295 N 
HETATM   17  C   UNL     1       7.778   7.375  -6.390  1.00  0.00     0.329 A 
HETATM   18  O   UNL     1       8.630   7.110  -5.555  1.00  0.00    -0.246 OA
HETATM   19  N   UNL     1       7.697   8.522  -7.206  1.00  0.00    -0.302 N 
HETATM   20  C   UNL     1       8.638   9.603  -7.222  1.00  0.00     0.161 C 
HETATM   21  C   UNL     1       6.543   8.437  -7.996  1.00  0.00     0.065 A 
HETATM   22  C   UNL     1       6.039   9.317  -8.929  1.00  0.00     0.032 A 
HETATM   23  C   UNL     1       5.900   7.234  -7.694  1.00  0.00     0.066 A 
HETATM   24  C   UNL     1       4.846   8.957  -9.567  1.00  0.00     0.002 A 
HETATM   25  C   UNL     1       4.195   7.745  -9.259  1.00  0.00     0.002 A 
HETATM   26  C   UNL     1       4.724   6.864  -8.309  1.00  0.00     0.032 A 
ENDBRANCH  15  16
ENDBRANCH   1  15
TORSDOF 7
