REMARK  4 active torsions:
REMARK  status: ('A' for Active; 'I' for Inactive)
REMARK    1  A    between atoms: C_7  and  C_8 
REMARK    2  A    between atoms: C_8  and  C_9 
REMARK       I    between atoms: C_9  and  N_11 
REMARK    3  A    between atoms: N_11  and  C_12 
REMARK    4  A    between atoms: C_12  and  C_13 
ROOT
HETATM    1  C   UNL     1       0.963  -0.437  -0.735  1.00  0.00     0.089 C 
HETATM    2  C   UNL     1       2.438  -0.381  -0.460  1.00  0.00     0.080 A 
HETATM    3  N   UNL     1       2.879  -0.307   0.750  1.00  0.00    -0.349 N 
ATOM      4  HN  UNL     1       2.237  -0.319   1.543  1.00  0.00     0.167 HD
HETATM    5  C   UNL     1       4.238  -0.211   0.943  1.00  0.00     0.018 A 
HETATM    6  C   UNL     1       4.631  -0.030   2.387  1.00  0.00     0.069 C 
HETATM    7  C   UNL     1       5.142  -0.265  -0.056  1.00  0.00     0.041 A 
HETATM    8  C   UNL     1       4.608  -0.450  -1.425  1.00  0.00     0.255 A 
HETATM    9  O   UNL     1       5.347  -0.640  -2.387  1.00  0.00    -0.268 OA
HETATM   10  N   UNL     1       3.253  -0.411  -1.550  1.00  0.00    -0.313 N 
HETATM   11  H   UNL     1       2.878  -0.519  -2.480  1.00  0.00     0.170 HD
ENDROOT
BRANCH   7  12
HETATM   12  C   UNL     1       6.621  -0.047   0.048  1.00  0.00     0.149 C 
BRANCH  12  13
HETATM   13  C   UNL     1       7.420  -1.317   0.297  1.00  0.00     0.222 C 
HETATM   14  O   UNL     1       8.060  -1.468   1.337  1.00  0.00    -0.273 OA
HETATM   15  N   UNL     1       7.432  -2.237  -0.727  1.00  0.00    -0.360 N 
HETATM   16  H   UNL     1       6.879  -2.069  -1.562  1.00  0.00     0.162 HD
BRANCH  15  17
HETATM   17  C   UNL     1       8.289  -3.404  -0.670  1.00  0.00     0.127 C 
BRANCH  17  18
HETATM   18  C   UNL     1       7.636  -4.515   0.097  1.00  0.00     0.003 A 
HETATM   19  C   UNL     1       8.439  -5.745   0.455  1.00  0.00     0.007 A 
HETATM   20  C   UNL     1       7.335  -5.841  -0.558  1.00  0.00     0.007 A 
ENDBRANCH  17  18
ENDBRANCH  15  17
ENDBRANCH  12  13
ENDBRANCH   7  12
TORSDOF 4
