REMARK  6 active torsions:
REMARK  status: ('A' for Active; 'I' for Inactive)
REMARK    1  A    between atoms: C_2  and  O_3 
REMARK    2  A    between atoms: O_3  and  C_4 
REMARK    3  A    between atoms: C_4  and  C_6 
REMARK       I    between atoms: C_6  and  N_8 
REMARK    4  A    between atoms: N_8  and  C_9 
REMARK    5  A    between atoms: C_9  and  C_10 
REMARK    6  A    between atoms: C_15  and  N_17 
ROOT
HETATM    1  C   UNL     1       8.281  -0.329   4.354  1.00  0.00    -0.036 A 
HETATM    2  C   UNL     1       9.060   0.824   4.386  1.00  0.00     0.026 A 
HETATM    3  C   UNL     1      10.424   0.695   4.202  1.00  0.00     0.090 A 
HETATM    4  N   UNL     1      11.054  -0.483   3.974  1.00  0.00    -0.352 N 
ATOM      5  HN  UNL     1      12.059  -0.519   3.803  1.00  0.00     0.166 HD
HETATM    6  C   UNL     1      10.308  -1.604   3.981  1.00  0.00     0.103 A 
HETATM    7  C   UNL     1       8.930  -1.554   4.200  1.00  0.00     0.057 A 
ENDROOT
BRANCH   1   8
HETATM    8  C   UNL     1       6.784  -0.276   4.410  1.00  0.00     0.161 C 
BRANCH   8   9
HETATM    9  N   UNL     1       6.275  -0.395   5.750  1.00  0.00    -0.355 N 
HETATM   10  C   UNL     1       4.910  -0.338   5.961  1.00  0.00     0.246 C 
HETATM   11  O   UNL     1       4.102  -0.370   5.036  1.00  0.00    -0.271 OA
HETATM   12  H   UNL     1       6.854  -0.123   6.537  1.00  0.00     0.162 HD
BRANCH  10  13
HETATM   13  C   UNL     1       4.505  -0.308   7.447  1.00  0.00     0.209 C 
HETATM   14  C   UNL     1       3.137   0.357   7.582  1.00  0.00     0.049 C 
BRANCH  13  15
HETATM   15  O   UNL     1       5.512   0.371   8.212  1.00  0.00    -0.377 OA
BRANCH  15  16
HETATM   16  C   UNL     1       5.286   0.316   9.620  1.00  0.00     0.164 C 
HETATM   17  C   UNL     1       6.454   0.975  10.329  1.00  0.00     0.033 C 
ENDBRANCH  15  16
ENDBRANCH  13  15
ENDBRANCH  10  13
ENDBRANCH   8   9
ENDBRANCH   1   8
BRANCH   6  18
HETATM   18  N   UNL     1      10.853  -2.818   3.624  1.00  0.00    -0.363 N 
HETATM   19  C   UNL     1      12.011  -2.839   2.730  1.00  0.00     0.150 C 
HETATM   20  C   UNL     1      11.966  -4.190   1.991  1.00  0.00     0.187 C 
HETATM   21  O   UNL     1      11.985  -5.301   2.913  1.00  0.00    -0.388 OA
HETATM   22  C   UNL     1      10.881  -5.225   3.837  1.00  0.00     0.187 C 
HETATM   23  C   UNL     1      10.882  -3.897   4.615  1.00  0.00     0.150 C 
ENDBRANCH   6  18
TORSDOF 6
