REMARK  4 active torsions:
REMARK  status: ('A' for Active; 'I' for Inactive)
REMARK    1  A    between atoms: C_4  and  N_5 
REMARK       I    between atoms: N_5  and  C_6 
REMARK       I    between atoms: C_6  and  N_8 
REMARK    2  A    between atoms: N_8  and  C_9 
REMARK    3  A    between atoms: C_9  and  C_10 
REMARK    4  A    between atoms: C_10  and  C_11 
ROOT
HETATM    1  N   UNL     1       6.895   3.494   1.321  1.00  0.00    -0.308 N 
HETATM    2  C   UNL     1       6.336   4.749   1.213  1.00  0.00     0.320 C 
HETATM    3  O   UNL     1       6.405   5.647   2.035  1.00  0.00    -0.247 OA
HETATM    4  N   UNL     1       5.648   4.912   0.025  1.00  0.00    -0.343 N 
HETATM    5  H   UNL     1       6.896   2.951   0.468  1.00  0.00     0.170 HD
HETATM    6  H   UNL     1       5.335   4.073  -0.435  1.00  0.00     0.164 HD
ENDROOT
BRANCH   1   7
HETATM    7  C   UNL     1       7.557   2.938   2.401  1.00  0.00     0.052 A 
HETATM    8  C   UNL     1       7.655   3.620   3.680  1.00  0.00     0.043 A 
HETATM    9  C   UNL     1       8.298   3.092   4.737  1.00  0.00     0.008 A 
HETATM   10  C   UNL     1       8.420   3.782   6.055  1.00  0.00     0.054 C 
HETATM   11  C   UNL     1       8.927   1.747   4.596  1.00  0.00     0.251 A 
HETATM   12  N   UNL     1       8.784   1.151   3.364  1.00  0.00    -0.331 N 
HETATM   13  O   UNL     1       9.525   1.201   5.517  1.00  0.00    -0.268 OA
HETATM   14  C   UNL     1       8.124   1.720   2.302  1.00  0.00     0.121 A 
HETATM   15  H   UNL     1       9.208   0.235   3.277  1.00  0.00     0.168 HD
ENDBRANCH   1   7
BRANCH   4  16
HETATM   16  C   UNL     1       4.824   6.093  -0.179  1.00  0.00     0.127 C 
BRANCH  16  17
HETATM   17  C   UNL     1       5.597   7.336  -0.621  1.00  0.00     0.051 C 
BRANCH  17  18
HETATM   18  C   UNL     1       6.202   7.246  -2.033  1.00  0.00     0.123 C 
HETATM   19  C   UNL     1       6.912   8.542  -2.439  1.00  0.00     0.032 C 
HETATM   20  C   UNL     1       5.908   9.648  -2.731  1.00  0.00     0.004 C 
HETATM   21  C   UNL     1       4.980   9.183  -3.840  1.00  0.00     0.026 C 
HETATM   22  C   UNL     1       4.355   7.829  -3.518  1.00  0.00     0.168 C 
HETATM   23  O   UNL     1       5.275   6.846  -3.048  1.00  0.00    -0.386 OA
ENDBRANCH  17  18
ENDBRANCH  16  17
ENDBRANCH   4  16
TORSDOF 4
