REMARK  2 active torsions:
REMARK  status: ('A' for Active; 'I' for Inactive)
REMARK    1  A    between atoms: C_4  and  N_5 
REMARK       I    between atoms: N_5  and  C_6 
REMARK       I    between atoms: C_6  and  N_8 
REMARK    2  A    between atoms: N_8  and  C_9 
ROOT
HETATM    1  N   UNL     1       6.070   1.474  -0.617  1.00  0.00    -0.293 N 
HETATM    2  C   UNL     1       5.865   2.812  -0.780  1.00  0.00     0.322 C 
HETATM    3  O   UNL     1       4.967   3.196  -1.524  1.00  0.00    -0.247 OA
HETATM    4  N   UNL     1       6.635   3.652  -0.022  1.00  0.00    -0.337 N 
HETATM    5  H   UNL     1       5.383   0.897  -1.079  1.00  0.00     0.172 HD
HETATM    6  H   UNL     1       7.422   3.247   0.473  1.00  0.00     0.164 HD
ENDROOT
BRANCH   1   7
HETATM    7  C   UNL     1       7.016   0.863   0.173  1.00  0.00     0.132 A 
HETATM    8  C   UNL     1       6.990  -0.500   0.546  1.00  0.00     0.084 A 
HETATM    9  C   UNL     1       8.071  -0.647   1.379  1.00  0.00     0.076 A 
HETATM   10  C   UNL     1       8.616  -1.751   2.185  1.00  0.00     0.079 C 
HETATM   11  O   UNL     1       8.739   0.532   1.457  1.00  0.00    -0.241 OA
HETATM   12  N   UNL     1       8.074   1.481   0.713  1.00  0.00    -0.245 N 
ATOM     13  HN  UNL     1       8.335   2.460   0.596  1.00  0.00     0.196 HD
ENDBRANCH   1   7
BRANCH   4  14
HETATM   14  C   UNL     1       6.434   5.058   0.015  1.00  0.00     0.095 A 
HETATM   15  C   UNL     1       7.268   5.938  -0.874  1.00  0.00     0.015 A 
HETATM   16  C   UNL     1       6.600   7.085  -1.561  1.00  0.00     0.007 C 
HETATM   17  C   UNL     1       7.446   5.994   0.621  1.00  0.00     0.015 A 
HETATM   18  C   UNL     1       7.063   8.443  -1.027  1.00  0.00     0.000 C 
HETATM   19  C   UNL     1       7.581   8.446   0.419  1.00  0.00     0.000 C 
HETATM   20  C   UNL     1       7.040   7.289   1.258  1.00  0.00     0.007 C 
ENDBRANCH   4  14
TORSDOF 2
