REMARK  6 active torsions:
REMARK  status: ('A' for Active; 'I' for Inactive)
REMARK    1  A    between atoms: O_4  and  C_5 
REMARK    2  A    between atoms: C_5  and  C_6 
REMARK    3  A    between atoms: C_6  and  N_7 
REMARK       I    between atoms: C_9  and  N_10 
REMARK       I    between atoms: C_9  and  N_11 
REMARK    4  A    between atoms: N_11  and  C_12 
REMARK    5  A    between atoms: C_12  and  C_13 
REMARK    6  A    between atoms: C_13  and  C_14 
ROOT
HETATM    1  N   UNL     2       4.988   2.030   1.835  1.00  0.00    -0.225 N 
ATOM      2  HN  UNL     2       4.408   2.606   2.445  1.00  0.00     0.177 HD
HETATM    3  C   UNL     2       6.245   2.341   1.776  1.00  0.00     0.667 C 
HETATM    4  N   UNL     2       7.178   1.591   1.005  1.00  0.00    -0.235 N 
HETATM    5  N   UNL     2       6.725   3.446   2.539  1.00  0.00    -0.226 N 
HETATM    6  H   UNL     2       6.929   0.728   0.505  1.00  0.00     0.174 HD
HETATM    7  H   UNL     2       8.175   1.847   1.029  1.00  0.00     0.174 HD
HETATM    8  H   UNL     2       7.675   3.802   2.359  1.00  0.00     0.177 HD
ENDROOT
BRANCH   5   9
HETATM    9  C   UNL     2       5.959   4.041   3.615  1.00  0.00     0.144 C 
BRANCH   9  10
HETATM   10  C   UNL     2       5.819   3.028   4.765  1.00  0.00     0.085 C 
BRANCH  10  11
HETATM   11  C   UNL     2       5.065   3.603   5.917  1.00  0.00     0.052 A 
HETATM   12  N   UNL     2       5.458   4.702   6.600  1.00  0.00    -0.357 N 
HETATM   13  C   UNL     2       4.605   4.992   7.617  1.00  0.00     0.012 A 
ATOM     14  HN  UNL     2       6.292   5.246   6.379  1.00  0.00     0.166 HD
HETATM   15  C   UNL     2       4.817   6.165   8.515  1.00  0.00     0.068 C 
HETATM   16  C   UNL     2       3.529   4.121   7.752  1.00  0.00     0.076 A 
HETATM   17  S   UNL     2       3.652   2.949   6.554  1.00  0.00    -0.087 SA
ENDBRANCH  10  11
ENDBRANCH   9  10
ENDBRANCH   5   9
BRANCH   1  18
HETATM   18  C   UNL     2       4.313   0.957   1.133  1.00  0.00     0.164 C 
BRANCH  18  19
HETATM   19  C   UNL     2       4.129  -0.217   2.083  1.00  0.00     0.187 C 
BRANCH  19  20
HETATM   20  O   UNL     2       3.383   0.221   3.199  1.00  0.00    -0.394 OA
HETATM   21  C   UNL     2       3.244  -0.837   4.115  1.00  0.00     0.201 C 
ENDBRANCH  19  20
ENDBRANCH  18  19
ENDBRANCH   1  18
TORSDOF 6
