REMARK  3 active torsions:
REMARK  status: ('A' for Active; 'I' for Inactive)
REMARK    1  A    between atoms: N_5  and  C_6 
REMARK    2  A    between atoms: C_6  and  C_7 
REMARK       I    between atoms: C_7  and  N_9 
REMARK       I    between atoms: N_9  and  C_10 
REMARK       I    between atoms: C_10  and  N_12 
REMARK    3  A    between atoms: N_12  and  C_13 
ROOT
HETATM    1  C   UNL     1       1.000  -0.139  -2.636  1.00  0.00     0.070 C 
HETATM    2  C   UNL     1       1.449  -0.576  -1.259  1.00  0.00     0.029 A 
HETATM    3  N   UNL     1       1.980  -1.750  -1.174  1.00  0.00    -0.299 N 
ATOM      4  HN  UNL     1       2.080  -2.340  -2.000  1.00  0.00     0.187 HD
HETATM    5  N   UNL     1       2.405  -2.183   0.052  1.00  0.00    -0.247 N 
HETATM    6  C   UNL     1       2.267  -1.463   1.225  1.00  0.00     0.283 A 
HETATM    7  O   UNL     1       2.585  -1.900   2.330  1.00  0.00    -0.265 OA
HETATM    8  C   UNL     1       1.667  -0.112   1.088  1.00  0.00     0.121 A 
HETATM    9  C   UNL     1       1.532   0.656   2.275  1.00  0.00     0.105 C 
HETATM   10  N   UNL     1       1.388   1.331   3.208  1.00  0.00    -0.191 NA
HETATM   11  C   UNL     1       1.254   0.347  -0.107  1.00  0.00    -0.012 A 
HETATM   12  C   UNL     1       0.628   1.684  -0.367  1.00  0.00     0.052 C 
ENDROOT
BRANCH   5  13
HETATM   13  C   UNL     1       2.818  -3.573   0.121  1.00  0.00     0.255 C 
BRANCH  13  14
HETATM   14  C   UNL     1       4.333  -3.837   0.043  1.00  0.00     0.245 C 
HETATM   15  O   UNL     1       5.180  -2.970  -0.178  1.00  0.00    -0.271 OA
HETATM   16  N   UNL     1       4.736  -5.159   0.211  1.00  0.00    -0.278 N 
HETATM   17  C   UNL     1       3.888  -6.229   0.240  1.00  0.00     0.323 C 
HETATM   18  H   UNL     1       5.731  -5.306   0.177  1.00  0.00     0.173 HD
HETATM   19  O   UNL     1       2.679  -6.134   0.080  1.00  0.00    -0.247 OA
HETATM   20  N   UNL     1       4.468  -7.452   0.517  1.00  0.00    -0.338 N 
HETATM   21  H   UNL     1       5.389  -7.593   0.125  1.00  0.00     0.164 HD
BRANCH  20  22
HETATM   22  C   UNL     1       3.541  -8.595   0.484  1.00  0.00     0.086 C 
HETATM   23  C   UNL     1       2.534  -8.570   1.664  1.00  0.00     0.025 C 
HETATM   24  C   UNL     1       2.823  -9.497   2.841  1.00  0.00     0.002 C 
HETATM   25  C   UNL     1       3.332 -10.856   2.400  1.00  0.00     0.000 C 
HETATM   26  C   UNL     1       4.577 -10.687   1.542  1.00  0.00     0.002 C 
HETATM   27  C   UNL     1       4.236  -9.940   0.263  1.00  0.00     0.025 C 
ENDBRANCH  20  22
ENDBRANCH  13  14
ENDBRANCH   5  13
TORSDOF 3
