REMARK  5 active torsions:
REMARK  status: ('A' for Active; 'I' for Inactive)
REMARK    1  A    between atoms: N_1  and  C_3 
REMARK    2  A    between atoms: C_14  and  N_19 
REMARK    3  A    between atoms: C_16  and  O_21 
REMARK    4  A    between atoms: C_17  and  C_22 
REMARK    5  A    between atoms: C_22  and  O_23 
ROOT
HETATM    1  N   UNL     1       3.223  -2.240  -1.151  1.00  0.00    -0.297 N 
HETATM    2  C   UNL     1       3.782  -0.992  -1.251  1.00  0.00     0.144 A 
HETATM    3  C   UNL     1       4.871  -1.154  -2.090  1.00  0.00     0.122 A 
HETATM    4  N   UNL     1       3.381   0.146  -0.660  1.00  0.00    -0.316 N 
ATOM      5  HN  UNL     1       2.572   0.229  -0.044  1.00  0.00     0.170 HD
HETATM    6  N   UNL     1       4.956  -2.452  -2.538  1.00  0.00    -0.346 N 
ATOM      7  HN  UNL     1       5.654  -2.849  -3.167  1.00  0.00     0.167 HD
HETATM    8  C   UNL     1       3.939  -3.068  -1.976  1.00  0.00     0.188 A 
HETATM    9  N   UNL     1       5.289   1.159  -1.791  1.00  0.00    -0.317 N 
ATOM     10  HN  UNL     1       5.816   2.013  -1.970  1.00  0.00     0.170 HD
HETATM   11  C   UNL     1       5.656  -0.017  -2.340  1.00  0.00     0.132 A 
HETATM   12  C   UNL     1       4.200   1.164  -0.997  1.00  0.00     0.182 A 
HETATM   13 CL   UNL     1       3.770   2.691  -0.354  1.00  0.00    -0.045 Cl
ENDROOT
BRANCH   1  14
HETATM   14  C   UNL     1       2.129  -2.586  -0.270  1.00  0.00     0.267 C 
HETATM   15  C   UNL     1       1.223  -3.733  -0.684  1.00  0.00     0.250 C 
HETATM   16  C   UNL     1       1.775  -4.946   0.043  1.00  0.00     0.187 C 
HETATM   17  F   UNL     1       1.230  -3.938  -2.023  1.00  0.00    -0.242 F 
HETATM   18  C   UNL     1       2.653  -4.379   1.159  1.00  0.00     0.179 C 
HETATM   19  O   UNL     1       2.696  -2.945   1.005  1.00  0.00    -0.353 OA
BRANCH  16  20
HETATM   20  O   UNL     1       0.719  -5.756   0.571  1.00  0.00    -0.390 OA
HETATM   21  H   UNL     1       0.198  -5.238   1.209  1.00  0.00     0.210 HD
ENDBRANCH  16  20
BRANCH  18  22
HETATM   22  C   UNL     1       4.089  -4.918   1.101  1.00  0.00     0.198 C 
BRANCH  22  23
HETATM   23  O   UNL     1       4.863  -4.368   2.165  1.00  0.00    -0.398 OA
HETATM   24  H   UNL     1       4.855  -3.400   2.045  1.00  0.00     0.209 HD
ENDBRANCH  22  23
ENDBRANCH  18  22
ENDBRANCH   1  14
BRANCH  11  25
HETATM   25  N   UNL     1       6.787  -0.053  -3.145  1.00  0.00    -0.383 N 
HETATM   26  H   UNL     1       7.024   0.849  -3.533  1.00  0.00     0.157 HD
HETATM   27  H   UNL     1       6.826  -0.858  -3.758  1.00  0.00     0.157 HD
ENDBRANCH  11  25
TORSDOF 5
