REMARK  4 active torsions:
REMARK  status: ('A' for Active; 'I' for Inactive)
REMARK    1  A    between atoms: O_1  and  C_2 
REMARK    2  A    between atoms: C_2  and  C_4 
REMARK    3  A    between atoms: C_4  and  C_5 
REMARK    4  A    between atoms: C_8  and  N_11 
ROOT
HETATM    1  C   UNL     1       4.814  -0.711  -0.002  1.00  0.00     0.027 A 
HETATM    2  C   UNL     1       5.321   0.538   0.295  1.00  0.00     0.078 A 
HETATM    3  S   UNL     1       7.029   0.474   0.383  1.00  0.00    -0.064 SA
HETATM    4  C   UNL     1       6.989  -1.199   0.002  1.00  0.00     0.155 A 
HETATM    5  N   UNL     1       5.778  -1.695  -0.148  1.00  0.00    -0.339 N 
ATOM      6  HN  UNL     1       5.576  -2.675  -0.346  1.00  0.00     0.168 HD
ENDROOT
BRANCH   4   7
HETATM    7  N   UNL     1       8.186  -1.892  -0.173  1.00  0.00    -0.280 N 
HETATM    8  C   UNL     1       9.482  -1.258  -0.393  1.00  0.00     0.137 C 
HETATM    9  C   UNL     1      10.236  -1.979  -1.495  1.00  0.00     0.040 C 
HETATM   10  C   UNL     1      10.436  -3.407  -1.047  1.00  0.00     0.126 C 
HETATM   11  N   UNL     1       9.212  -3.971  -0.538  1.00  0.00    -0.343 N 
HETATM   12  C   UNL     1       8.105  -3.281  -0.114  1.00  0.00     0.324 C 
HETATM   13  H   UNL     1       9.122  -4.976  -0.441  1.00  0.00     0.164 HD
HETATM   14  O   UNL     1       7.144  -3.941   0.276  1.00  0.00    -0.247 OA
ENDBRANCH   4   7
BRANCH   1  15
HETATM   15  C   UNL     1       3.382  -1.053  -0.244  1.00  0.00     0.167 C 
BRANCH  15  16
HETATM   16  C   UNL     1       2.942  -2.431   0.193  1.00  0.00     0.145 C 
HETATM   17  O   UNL     1       1.770  -2.670   0.476  1.00  0.00    -0.650 OA
BRANCH  16  18
HETATM   18  O   UNL     1       3.865  -3.411   0.170  1.00  0.00    -0.776 OA
HETATM   19  H   UNL     1       4.787  -3.095  -0.015  1.00  0.00     0.167 HD
ENDBRANCH  16  18
ENDBRANCH  15  16
ENDBRANCH   1  15
TORSDOF 4
