REMARK  7 active torsions:
REMARK  status: ('A' for Active; 'I' for Inactive)
REMARK    1  A    between atoms: O_1  and  C_2 
REMARK    2  A    between atoms: C_2  and  C_3 
REMARK    3  A    between atoms: N_12  and  C_13 
REMARK    4  A    between atoms: C_13  and  C_14 
REMARK    5  A    between atoms: C_14  and  O_15 
REMARK    6  A    between atoms: C_14  and  C_16 
REMARK    7  A    between atoms: C_20  and  C_22 
ROOT
HETATM    1  C   UNL     1       0.847  -2.543   0.644  1.00  0.00     0.167 C 
ENDROOT
BRANCH   1   2
HETATM    2  N   UNL     1       2.149  -2.623   0.003  1.00  0.00    -0.330 N 
HETATM    3  C   UNL     1       2.402  -2.613  -1.357  1.00  0.00     0.108 A 
HETATM    4  N   UNL     1       3.702  -2.547  -1.584  1.00  0.00    -0.342 N 
HETATM    5  C   UNL     1       4.303  -2.495  -0.354  1.00  0.00     0.060 A 
ATOM      6  HN  UNL     1       4.165  -2.537  -2.493  1.00  0.00     0.167 HD
HETATM    7  C   UNL     1       5.665  -2.380  -0.036  1.00  0.00     0.032 A 
HETATM    8  C   UNL     1       3.358  -2.544   0.665  1.00  0.00     0.062 A 
HETATM    9  C   UNL     1       6.043  -2.326   1.311  1.00  0.00     0.002 A 
HETATM   10  C   UNL     1       5.083  -2.391   2.321  1.00  0.00     0.002 A 
HETATM   11  C   UNL     1       3.719  -2.501   2.020  1.00  0.00     0.032 A 
BRANCH   3  12
HETATM   12  C   UNL     1       1.379  -2.581  -2.444  1.00  0.00     0.240 C 
BRANCH  12  13
HETATM   13  O   UNL     1       0.233  -3.329  -2.063  1.00  0.00    -0.393 OA
HETATM   14  H   UNL     1      -0.303  -3.429  -2.869  1.00  0.00     0.209 HD
ENDBRANCH  12  13
ENDBRANCH   3  12
ENDBRANCH   1   2
BRANCH   1  15
HETATM   15  C   UNL     1       0.207  -3.908   0.961  1.00  0.00     0.169 C 
BRANCH  15  16
HETATM   16  O   UNL     1       0.990  -4.592   1.949  1.00  0.00    -0.389 OA
HETATM   17  H   UNL     1       0.888  -4.118   2.790  1.00  0.00     0.210 HD
ENDBRANCH  15  16
BRANCH  15  18
HETATM   18  C   UNL     1      -1.230  -3.849   1.474  1.00  0.00    -0.027 A 
HETATM   19  C   UNL     1      -1.874  -5.052   1.817  1.00  0.00     0.010 A 
HETATM   20  C   UNL     1      -3.198  -5.066   2.260  1.00  0.00     0.001 A 
HETATM   21  C   UNL     1      -3.916  -3.878   2.361  1.00  0.00     0.016 A 
HETATM   22  C   UNL     1      -3.311  -2.664   2.021  1.00  0.00     0.048 A 
HETATM   23  C   UNL     1      -1.968  -2.659   1.592  1.00  0.00     0.025 A 
BRANCH  22  24
HETATM   24  C   UNL     1      -4.075  -1.361   2.092  1.00  0.00     0.417 C 
HETATM   25  F   UNL     1      -5.375  -1.504   2.471  1.00  0.00    -0.166 F 
HETATM   26  F   UNL     1      -3.521  -0.481   2.972  1.00  0.00    -0.166 F 
HETATM   27  F   UNL     1      -4.104  -0.715   0.892  1.00  0.00    -0.166 F 
ENDBRANCH  22  24
ENDBRANCH  15  18
ENDBRANCH   1  15
TORSDOF 7
