REMARK  5 active torsions:
REMARK  status: ('A' for Active; 'I' for Inactive)
REMARK    1  A    between atoms: C_2  and  C_3 
REMARK    2  A    between atoms: C_2  and  N_10 
REMARK    3  A    between atoms: C_3  and  N_4 
REMARK       I    between atoms: N_10  and  C_11 
REMARK       I    between atoms: C_11  and  N_13 
REMARK    4  A    between atoms: N_13  and  C_14 
REMARK    5  A    between atoms: C_14  and  C_16 
ROOT
HETATM    1  N   UNL     1       3.147   0.563   1.285  1.00  0.00    -0.337 N 
HETATM    2  C   UNL     1       4.495   0.492   1.515  1.00  0.00     0.316 C 
HETATM    3  O   UNL     1       5.277  -0.085   0.773  1.00  0.00    -0.247 OA
HETATM    4  N   UNL     1       4.850   1.125   2.678  1.00  0.00    -0.336 N 
HETATM    5  H   UNL     1       2.564   0.783   2.080  1.00  0.00     0.164 HD
HETATM    6  H   UNL     1       4.270   1.902   2.965  1.00  0.00     0.164 HD
ENDROOT
BRANCH   1   7
HETATM    7  C   UNL     1       2.535  -0.077   0.113  1.00  0.00     0.102 C 
HETATM    8  C   UNL     1       1.071  -0.398   0.417  1.00  0.00     0.034 C 
BRANCH   7   9
HETATM    9  C   UNL     1       2.702   0.811  -1.132  1.00  0.00     0.172 C 
BRANCH   9  10
HETATM   10  N   UNL     1       2.198   0.210  -2.352  1.00  0.00    -0.302 N 
HETATM   11  C   UNL     1       2.885  -0.589  -3.219  1.00  0.00     0.111 A 
HETATM   12  C   UNL     1       2.011  -0.885  -4.239  1.00  0.00     0.037 A 
HETATM   13  C   UNL     1       0.825  -0.209  -3.898  1.00  0.00     0.108 A 
HETATM   14  N   UNL     1       0.933   0.466  -2.752  1.00  0.00    -0.310 N 
ATOM     15  HN  UNL     1       0.228   1.039  -2.288  1.00  0.00     0.186 HD
ENDBRANCH   9  10
ENDBRANCH   7   9
ENDBRANCH   1   7
BRANCH   4  16
HETATM   16  C   UNL     1       6.251   1.202   3.094  1.00  0.00     0.111 C 
HETATM   17  C   UNL     1       6.946   2.365   2.379  1.00  0.00     0.035 C 
BRANCH  16  18
HETATM   18  C   UNL     1       6.394   1.346   4.622  1.00  0.00     0.143 C 
HETATM   19  C   UNL     1       5.795   0.208   5.446  1.00  0.00     0.036 C 
HETATM   20  C   UNL     1       5.161   0.895   6.641  1.00  0.00     0.029 C 
HETATM   21  C   UNL     1       5.595   2.338   6.518  1.00  0.00     0.168 C 
HETATM   22  O   UNL     1       5.769   2.548   5.113  1.00  0.00    -0.384 OA
ENDBRANCH  16  18
ENDBRANCH   4  16
TORSDOF 5
