REMARK  2 active torsions:
REMARK  status: ('A' for Active; 'I' for Inactive)
REMARK    1  A    between atoms: N_4  and  C_9 
REMARK    2  A    between atoms: C_12  and  N_13 
ROOT
HETATM    1  C   UNL     1       1.873   1.467  -3.339  1.00  0.00     0.103 A 
HETATM    2  C   UNL     1       1.008   0.956  -4.308  1.00  0.00     0.050 A 
HETATM    3  C   UNL     1       0.422   1.802  -5.249  1.00  0.00     0.028 A 
HETATM    4  C   UNL     1       0.740   3.148  -5.256  1.00  0.00     0.021 A 
HETATM    5  C   UNL     1       1.545   3.589  -4.209  1.00  0.00     0.113 A 
HETATM    6  N   UNL     1       2.117   2.789  -3.272  1.00  0.00    -0.351 N 
ATOM      7  HN  UNL     1       2.713   3.178  -2.541  1.00  0.00     0.166 HD
ENDROOT
BRANCH   1   8
HETATM    8  N   UNL     1       2.410   0.629  -2.394  1.00  0.00    -0.362 N 
HETATM    9  C   UNL     1       2.851   1.136  -1.097  1.00  0.00     0.156 C 
HETATM   10  C   UNL     1       2.456   0.091  -0.020  1.00  0.00     0.136 C 
HETATM   11  C   UNL     1       0.949   0.091   0.245  1.00  0.00     0.041 C 
HETATM   12  O   UNL     1       2.925  -1.241  -0.347  1.00  0.00    -0.378 OA
HETATM   13  C   UNL     1       2.527  -1.676  -1.665  1.00  0.00     0.136 C 
HETATM   14  C   UNL     1       2.980  -0.669  -2.740  1.00  0.00     0.156 C 
HETATM   15  C   UNL     1       3.134  -3.049  -1.919  1.00  0.00     0.041 C 
ENDBRANCH   1   8
BRANCH   4  16
HETATM   16  N   UNL     1       0.078   4.028  -6.120  1.00  0.00    -0.302 NA
HETATM   17  H   UNL     1      -0.222   3.595  -6.987  1.00  0.00     0.124 HD
HETATM   18  H   UNL     1       0.578   4.898  -6.280  1.00  0.00     0.124 HD
ENDBRANCH   4  16
TORSDOF 2
