REMARK  4 active torsions:
REMARK  status: ('A' for Active; 'I' for Inactive)
REMARK    1  A    between atoms: C_2  and  C_3 
REMARK    2  A    between atoms: C_2  and  N_13 
REMARK    3  A    between atoms: C_3  and  C_4 
REMARK    4  A    between atoms: N_13  and  C_14 
ROOT
HETATM    1  C   UNL     1       0.815  -0.129   0.413  1.00  0.00     0.043 C 
HETATM    2  C   UNL     1       2.318  -0.209   0.087  1.00  0.00     0.221 C 
ENDROOT
BRANCH   2   3
HETATM    3  C   UNL     1       2.418  -0.286  -1.465  1.00  0.00     0.077 C 
BRANCH   3   4
HETATM    4  C   UNL     1       3.764  -0.501  -2.089  1.00  0.00    -0.009 A 
HETATM    5  C   UNL     1       4.452  -1.732  -2.298  1.00  0.00     0.030 A 
HETATM    6  C   UNL     1       4.047  -3.109  -1.922  1.00  0.00     0.070 C 
HETATM    7  N   UNL     1       5.571  -1.564  -3.011  1.00  0.00    -0.303 N 
HETATM    8  N   UNL     1       5.587  -0.255  -3.304  1.00  0.00    -0.300 N 
ATOM      9  HN  UNL     1       6.257  -2.272  -3.273  1.00  0.00     0.186 HD
HETATM   10  C   UNL     1       6.587   0.239  -4.226  1.00  0.00     0.177 C 
HETATM   11  C   UNL     1       4.533   0.437  -2.768  1.00  0.00     0.032 A 
HETATM   12  C   UNL     1       4.299   1.886  -2.987  1.00  0.00     0.070 C 
ENDBRANCH   3   4
ENDBRANCH   2   3
BRANCH   2  13
HETATM   13  N   UNL     1       3.073   0.939   0.625  1.00  0.00     0.092 N 
HETATM   14  H   UNL     1       2.893   1.750   0.033  1.00  0.00     0.316 HD
BRANCH  13  15
HETATM   15  C   UNL     1       2.849   1.318   2.033  1.00  0.00     0.222 C 
HETATM   16  C   UNL     1       3.642   2.609   2.320  1.00  0.00     0.045 C 
HETATM   17  C   UNL     1       5.154   2.422   2.304  1.00  0.00     0.076 C 
HETATM   18  S   UNL     1       5.682   1.305   3.632  1.00  0.00    -0.169 SA
HETATM   19  C   UNL     1       4.661  -0.127   3.179  1.00  0.00     0.076 C 
HETATM   20  C   UNL     1       3.184   0.234   3.074  1.00  0.00     0.045 C 
ENDBRANCH  13  15
ENDBRANCH   2  13
TORSDOF 4
