REMARK  2 active torsions:
REMARK  status: ('A' for Active; 'I' for Inactive)
REMARK    1  A    between atoms: C_6  and  N_8 
REMARK       I    between atoms: N_8  and  C_9 
REMARK       I    between atoms: C_9  and  N_11 
REMARK    2  A    between atoms: N_11  and  C_12 
ROOT
HETATM    1  N   UNL     1       2.984  -3.053  -2.143  1.00  0.00    -0.338 N 
HETATM    2  C   UNL     1       2.267  -4.201  -1.971  1.00  0.00     0.322 C 
HETATM    3  O   UNL     1       1.146  -4.236  -1.462  1.00  0.00    -0.247 OA
HETATM    4  N   UNL     1       2.811  -5.341  -2.489  1.00  0.00    -0.288 N 
HETATM    5  H   UNL     1       3.969  -3.147  -2.374  1.00  0.00     0.164 HD
HETATM    6  H   UNL     1       2.209  -6.149  -2.508  1.00  0.00     0.172 HD
ENDROOT
BRANCH   1   7
HETATM    7  C   UNL     1       2.512  -1.739  -1.763  1.00  0.00     0.086 C 
HETATM    8  C   UNL     1       3.077  -0.686  -2.719  1.00  0.00     0.025 C 
HETATM    9  C   UNL     1       2.619   0.717  -2.341  1.00  0.00     0.002 C 
HETATM   10  C   UNL     1       2.950   1.044  -0.884  1.00  0.00     0.004 C 
HETATM   11  C   UNL     1       2.440  -0.016   0.105  1.00  0.00    -0.017 C 
HETATM   12  C   UNL     1       0.917   0.042   0.264  1.00  0.00     0.010 C 
HETATM   13  C   UNL     1       2.902  -1.418  -0.316  1.00  0.00     0.029 C 
ENDBRANCH   1   7
BRANCH   4  14
HETATM   14  C   UNL     1       4.046  -5.416  -3.066  1.00  0.00     0.168 A 
HETATM   15  N   UNL     1       5.007  -4.519  -3.054  1.00  0.00    -0.279 N 
HETATM   16  N   UNL     1       6.093  -4.919  -3.797  1.00  0.00    -0.303 N 
ATOM     17  HN  UNL     1       4.954  -3.632  -2.553  1.00  0.00     0.189 HD
HETATM   18  C   UNL     1       5.894  -6.099  -4.346  1.00  0.00     0.160 A 
ATOM     19  HN  UNL     1       6.946  -4.370  -3.909  1.00  0.00     0.186 HD
HETATM   20  S   UNL     1       4.389  -6.830  -3.949  1.00  0.00    -0.046 SA
ENDBRANCH   4  14
TORSDOF 2
