REMARK  3 active torsions:
REMARK  status: ('A' for Active; 'I' for Inactive)
REMARK    1  A    between atoms: C_6  and  N_7 
REMARK       I    between atoms: N_7  and  C_8 
REMARK    2  A    between atoms: C_8  and  C_10 
REMARK    3  A    between atoms: C_10  and  N_11 
ROOT
HETATM    1  N   UNL     1       3.090  -3.152  -2.257  1.00  0.00    -0.355 N 
HETATM    2  C   UNL     1       2.386  -3.879  -3.201  1.00  0.00     0.237 C 
HETATM    3  O   UNL     1       1.332  -3.480  -3.694  1.00  0.00    -0.272 OA
HETATM    4  H   UNL     1       3.961  -3.533  -1.890  1.00  0.00     0.162 HD
ENDROOT
BRANCH   2   5
HETATM    5  C   UNL     1       2.929  -5.273  -3.500  1.00  0.00     0.255 C 
BRANCH   5   6
HETATM    6  N   UNL     1       4.266  -5.249  -4.089  1.00  0.00    -0.248 N 
HETATM    7  N   UNL     1       4.322  -5.294  -5.463  1.00  0.00    -0.305 N 
HETATM    8  C   UNL     1       5.496  -5.342  -6.003  1.00  0.00     0.133 A 
ATOM      9  HN  UNL     1       3.475  -5.290  -6.031  1.00  0.00     0.186 HD
HETATM   10  C   UNL     1       6.769  -5.380  -5.275  1.00  0.00     0.078 A 
HETATM   11 CL   UNL     1       8.201  -5.507  -6.211  1.00  0.00    -0.081 Cl
HETATM   12  C   UNL     1       6.707  -5.320  -3.944  1.00  0.00     0.126 A 
HETATM   13 CL   UNL     1       8.106  -5.366  -2.933  1.00  0.00    -0.076 Cl
HETATM   14  C   UNL     1       5.384  -5.209  -3.264  1.00  0.00     0.285 A 
HETATM   15  O   UNL     1       5.297  -5.075  -2.044  1.00  0.00    -0.265 OA
ENDBRANCH   5   6
ENDBRANCH   2   5
BRANCH   1  16
HETATM   16  C   UNL     1       2.645  -1.827  -1.840  1.00  0.00     0.088 C 
HETATM   17  C   UNL     1       3.201  -0.760  -2.794  1.00  0.00     0.025 C 
HETATM   18  C   UNL     1       2.746   0.644  -2.406  1.00  0.00     0.002 C 
HETATM   19  C   UNL     1       3.084   0.964  -0.952  1.00  0.00     0.005 C 
HETATM   20  C   UNL     1       2.549  -0.089   0.034  1.00  0.00    -0.013 C 
HETATM   21  C   UNL     1       1.024   0.029   0.176  1.00  0.00     0.010 C 
HETATM   22  C   UNL     1       3.036  -1.507  -0.378  1.00  0.00     0.008 C 
HETATM   23  C   UNL     1       2.549  -2.580   0.601  1.00  0.00     0.012 C 
ENDBRANCH   1  16
TORSDOF 3
