REMARK  7 active torsions:
REMARK  status: ('A' for Active; 'I' for Inactive)
REMARK    1  A    between atoms: N_11  and  C_12 
REMARK    2  A    between atoms: C_12  and  C_13 
REMARK    3  A    between atoms: C_13  and  O_14 
REMARK    4  A    between atoms: C_13  and  C_15 
REMARK    5  A    between atoms: C_15  and  O_16 
REMARK    6  A    between atoms: O_16  and  C_17 
REMARK    7  A    between atoms: C_17  and  C_18 
ROOT
HETATM    1  C   UNL     1       3.856  -3.452   0.083  1.00  0.00     0.160 C 
ENDROOT
BRANCH   1   2
HETATM    2  C   UNL     1       2.787  -2.348   0.032  1.00  0.00     0.164 C 
BRANCH   2   3
HETATM    3  N   UNL     1       3.336  -1.003  -0.021  1.00  0.00    -0.332 N 
HETATM    4  C   UNL     1       3.643  -0.297  -1.167  1.00  0.00     0.080 A 
HETATM    5  C   UNL     1       3.537  -0.845  -2.542  1.00  0.00     0.089 C 
HETATM    6  N   UNL     1       4.027   0.929  -0.872  1.00  0.00    -0.344 N 
HETATM    7  C   UNL     1       3.965   1.025   0.493  1.00  0.00     0.060 A 
ATOM      8  HN  UNL     1       4.312   1.657  -1.527  1.00  0.00     0.167 HD
HETATM    9  C   UNL     1       4.254   2.120   1.320  1.00  0.00     0.032 A 
HETATM   10  C   UNL     1       3.535  -0.172   1.060  1.00  0.00     0.062 A 
HETATM   11  C   UNL     1       4.109   1.979   2.704  1.00  0.00     0.002 A 
HETATM   12  C   UNL     1       3.681   0.770   3.255  1.00  0.00     0.002 A 
HETATM   13  C   UNL     1       3.383  -0.332   2.444  1.00  0.00     0.032 A 
ENDBRANCH   2   3
ENDBRANCH   1   2
BRANCH   1  14
HETATM   14  O   UNL     1       4.582  -3.439   1.315  1.00  0.00    -0.392 OA
HETATM   15  H   UNL     1       3.953  -3.430   2.055  1.00  0.00     0.210 HD
ENDBRANCH   1  14
BRANCH   1  16
HETATM   16  C   UNL     1       3.217  -4.838  -0.096  1.00  0.00     0.201 C 
BRANCH  16  17
HETATM   17  O   UNL     1       2.549  -4.885  -1.351  1.00  0.00    -0.384 OA
BRANCH  17  18
HETATM   18  C   UNL     1       1.939  -6.153  -1.603  1.00  0.00     0.209 C 
BRANCH  18  19
HETATM   19  C   UNL     1       1.231  -6.135  -2.932  1.00  0.00     0.004 A 
HETATM   20  C   UNL     1       1.238  -5.019  -3.783  1.00  0.00     0.012 A 
HETATM   21  C   UNL     1       0.552  -5.045  -5.000  1.00  0.00     0.001 A 
HETATM   22  C   UNL     1      -0.148  -6.188  -5.385  1.00  0.00     0.003 A 
HETATM   23  C   UNL     1      -0.155  -7.307  -4.555  1.00  0.00     0.043 A 
HETATM   24  C   UNL     1       0.531  -7.272  -3.344  1.00  0.00     0.124 A 
HETATM   25  F   UNL     1       0.511  -8.359  -2.558  1.00  0.00    -0.205 F 
ENDBRANCH  18  19
ENDBRANCH  17  18
ENDBRANCH  16  17
ENDBRANCH   1  16
TORSDOF 7
