REMARK  6 active torsions:
REMARK  status: ('A' for Active; 'I' for Inactive)
REMARK       I    between atoms: N_1  and  C_2 
REMARK    1  A    between atoms: C_2  and  C_4 
REMARK    2  A    between atoms: C_4  and  N_5 
REMARK    3  A    between atoms: C_6  and  S_7 
REMARK    4  A    between atoms: S_7  and  C_8 
REMARK    5  A    between atoms: C_8  and  C_9 
REMARK    6  A    between atoms: C_16  and  C_17 
ROOT
HETATM    1  N   UNL     1       4.821   1.035   0.328  1.00  0.00    -0.306 N 
HETATM    2  C   UNL     1       5.332  -0.223   0.499  1.00  0.00     0.163 C 
HETATM    3  N   UNL     1       6.637  -0.194   0.338  1.00  0.00    -0.278 N 
ATOM      4  HN  UNL     1       7.260  -1.001   0.330  1.00  0.00     0.189 HD
HETATM    5  N   UNL     1       7.008   1.114   0.183  1.00  0.00    -0.286 N 
ATOM      6  HN  UNL     1       7.958   1.454   0.035  1.00  0.00     0.188 HD
HETATM    7  C   UNL     1       5.922   1.857   0.258  1.00  0.00     0.104 C 
ENDROOT
BRANCH   1   8
HETATM    8  C   UNL     1       3.438   1.449   0.356  1.00  0.00     0.235 C 
BRANCH   8   9
HETATM    9  C   UNL     1       2.831   1.489  -1.029  1.00  0.00     0.233 C 
HETATM   10  N   UNL     1       2.514   0.286  -1.591  1.00  0.00    -0.369 N 
HETATM   11  H   UNL     1       2.131   0.292  -2.528  1.00  0.00     0.159 HD
HETATM   12  H   UNL     1       2.787  -0.606  -1.197  1.00  0.00     0.159 HD
HETATM   13  O   UNL     1       2.588   2.541  -1.616  1.00  0.00    -0.272 OA
ENDBRANCH   8   9
ENDBRANCH   1   8
BRANCH   2  14
HETATM   14  S   UNL     1       4.427  -1.618   0.973  1.00  0.00    -0.087 SA
BRANCH  14  15
HETATM   15  C   UNL     1       5.794  -2.621   1.664  1.00  0.00     0.132 C 
BRANCH  15  16
HETATM   16  C   UNL     1       5.322  -3.961   2.166  1.00  0.00     0.012 C 
HETATM   17  C   UNL     1       5.396  -4.366   3.440  1.00  0.00     0.033 C 
HETATM   18 CL   UNL     1       4.781  -5.084   0.960  1.00  0.00    -0.089 Cl
ENDBRANCH  15  16
ENDBRANCH  14  15
ENDBRANCH   2  14
BRANCH   7  19
HETATM   19  C   UNL     1       5.961   3.374   0.383  1.00  0.00     0.055 A 
HETATM   20  C   UNL     1       7.126   4.166  -0.168  1.00  0.00     0.013 A 
HETATM   21  C   UNL     1       7.054   3.907   1.297  1.00  0.00     0.013 A 
ENDBRANCH   7  19
TORSDOF 6
