REMARK  7 active torsions:
REMARK  status: ('A' for Active; 'I' for Inactive)
REMARK    1  A    between atoms: O_2  and  C_3 
REMARK    2  A    between atoms: C_3  and  C_4 
REMARK    3  A    between atoms: C_4  and  N_5 
REMARK    4  A    between atoms: C_8  and  C_13 
REMARK       I    between atoms: C_13  and  N_15 
REMARK    5  A    between atoms: N_15  and  C_16 
REMARK    6  A    between atoms: C_16  and  C_17 
REMARK    7  A    between atoms: C_17  and  N_19 
ROOT
HETATM    1  C   UNL     1       7.536  -4.366  -2.240  1.00  0.00     0.269 C 
HETATM    2  O   UNL     1       7.720  -5.458  -2.759  1.00  0.00    -0.266 OA
HETATM    3  N   UNL     1       8.336  -3.263  -2.434  1.00  0.00    -0.354 N 
HETATM    4  H   UNL     1       8.069  -2.402  -1.966  1.00  0.00     0.162 HD
ENDROOT
BRANCH   1   5
HETATM    5  C   UNL     1       6.370  -4.157  -1.263  1.00  0.00     0.116 A 
HETATM    6  N   UNL     1       6.175  -2.973  -0.759  1.00  0.00    -0.290 N 
HETATM    7  N   UNL     1       5.126  -2.847   0.147  1.00  0.00    -0.255 N 
ATOM      8  HN  UNL     1       6.761  -2.178  -1.015  1.00  0.00     0.187 HD
HETATM    9  C   UNL     1       4.371  -3.918   0.620  1.00  0.00     0.262 A 
HETATM   10  C   UNL     1       4.620  -5.221  -0.030  1.00  0.00     0.078 A 
HETATM   11  O   UNL     1       3.532  -3.863   1.516  1.00  0.00    -0.267 OA
HETATM   12  C   UNL     1       5.570  -5.355  -0.956  1.00  0.00     0.042 A 
BRANCH   7  13
HETATM   13  C   UNL     1       4.864  -1.507   0.672  1.00  0.00     0.178 C 
BRANCH  13  14
HETATM   14  C   UNL     1       4.553  -0.486  -0.424  1.00  0.00     0.189 C 
BRANCH  14  15
HETATM   15  O   UNL     1       3.354  -0.847  -1.115  1.00  0.00    -0.394 OA
HETATM   16  C   UNL     1       3.051   0.073  -2.154  1.00  0.00     0.201 C 
ENDBRANCH  14  15
ENDBRANCH  13  14
ENDBRANCH   7  13
ENDBRANCH   1   5
BRANCH   3  17
HETATM   17  C   UNL     1       9.573  -3.343  -3.197  1.00  0.00     0.158 C 
BRANCH  17  18
HETATM   18  C   UNL     1       9.379  -3.179  -4.737  1.00  0.00     0.236 C 
HETATM   19  C   UNL     1       8.858  -1.744  -4.974  1.00  0.00     0.044 C 
BRANCH  18  20
HETATM   20  N   UNL     1      10.636  -3.411  -5.507  1.00  0.00     0.098 N 
HETATM   21  C   UNL     1      10.479  -3.223  -6.975  1.00  0.00     0.299 C 
HETATM   22  C   UNL     1       9.663  -4.336  -7.652  1.00  0.00     0.198 C 
HETATM   23  O   UNL     1      10.294  -5.608  -7.465  1.00  0.00    -0.388 OA
HETATM   24  C   UNL     1      10.456  -5.896  -6.070  1.00  0.00     0.198 C 
HETATM   25  C   UNL     1      11.213  -4.773  -5.335  1.00  0.00     0.299 C 
ENDBRANCH  18  20
ENDBRANCH  17  18
ENDBRANCH   3  17
TORSDOF 7
