REMARK  5 active torsions:
REMARK  status: ('A' for Active; 'I' for Inactive)
REMARK       I    between atoms: C_2  and  N_3 
REMARK       I    between atoms: C_2  and  N_13 
REMARK    1  A    between atoms: N_3  and  C_4 
REMARK    2  A    between atoms: C_4  and  C_5 
REMARK    3  A    between atoms: C_5  and  N_6 
REMARK    4  A    between atoms: N_13  and  C_14 
REMARK    5  A    between atoms: C_17  and  N_21 
ROOT
HETATM    1  O   UNL     1       1.235   0.142   0.409  1.00  0.00    -0.247 OA
HETATM    2  C   UNL     1       2.431   0.052   0.171  1.00  0.00     0.320 C 
HETATM    3  N   UNL     1       3.071  -1.167   0.075  1.00  0.00    -0.341 N 
HETATM    4  N   UNL     1       3.299   1.104  -0.035  1.00  0.00    -0.308 N 
HETATM    5  H   UNL     1       3.869  -1.199  -0.540  1.00  0.00     0.164 HD
HETATM    6  H   UNL     1       4.234   0.874  -0.333  1.00  0.00     0.170 HD
ENDROOT
BRANCH   4   7
HETATM    7  C   UNL     1       2.942   2.470  -0.026  1.00  0.00     0.051 A 
HETATM    8  C   UNL     1       1.753   2.957   0.489  1.00  0.00     0.035 A 
HETATM    9  C   UNL     1       1.450   4.318   0.391  1.00  0.00     0.051 A 
HETATM   10  C   UNL     1       2.320   5.202  -0.240  1.00  0.00     0.103 A 
HETATM   11  N   UNL     1       3.508   4.735  -0.695  1.00  0.00    -0.350 N 
HETATM   12  C   UNL     1       3.798   3.415  -0.568  1.00  0.00     0.119 A 
ATOM     13  HN  UNL     1       4.178   5.370  -1.129  1.00  0.00     0.166 HD
BRANCH  10  14
HETATM   14  N   UNL     1       2.040   6.539  -0.405  1.00  0.00    -0.363 N 
HETATM   15  C   UNL     1       0.790   7.203  -0.017  1.00  0.00     0.150 C 
HETATM   16  C   UNL     1       0.045   7.702  -1.266  1.00  0.00     0.187 C 
HETATM   17  O   UNL     1       0.875   8.558  -2.067  1.00  0.00    -0.388 OA
HETATM   18  C   UNL     1       2.052   7.848  -2.494  1.00  0.00     0.187 C 
HETATM   19  C   UNL     1       2.883   7.351  -1.298  1.00  0.00     0.150 C 
ENDBRANCH  10  14
ENDBRANCH   4   7
BRANCH   3  20
HETATM   20  C   UNL     1       2.264  -2.380   0.131  1.00  0.00     0.154 C 
BRANCH  20  21
HETATM   21  C   UNL     1       3.042  -3.585   0.690  1.00  0.00     0.292 C 
BRANCH  21  22
HETATM   22  N   UNL     1       2.258  -4.838   0.819  1.00  0.00     0.090 N 
HETATM   23  C   UNL     1       3.103  -5.879   1.431  1.00  0.00     0.272 C 
HETATM   24  C   UNL     1       2.302  -7.043   2.016  1.00  0.00     0.030 C 
HETATM   25  C   UNL     1       1.977  -8.175   1.046  1.00  0.00     0.002 C 
HETATM   26  C   UNL     1       1.645  -7.766  -0.382  1.00  0.00     0.002 C 
HETATM   27  C   UNL     1       0.810  -6.500  -0.477  1.00  0.00     0.030 C 
HETATM   28  C   UNL     1       1.656  -5.225  -0.464  1.00  0.00     0.272 C 
ENDBRANCH  21  22
ENDBRANCH  20  21
ENDBRANCH   3  20
TORSDOF 5
