REMARK  6 active torsions:
REMARK  status: ('A' for Active; 'I' for Inactive)
REMARK    1  A    between atoms: O_2  and  C_3 
REMARK    2  A    between atoms: C_3  and  C_4 
REMARK    3  A    between atoms: C_4  and  N_5 
REMARK    4  A    between atoms: C_8  and  C_13 
REMARK       I    between atoms: C_13  and  N_15 
REMARK    5  A    between atoms: C_19  and  C_20 
REMARK    6  A    between atoms: C_20  and  O_22 
ROOT
HETATM    1  N   UNL     1       4.793   1.967   2.012  1.00  0.00    -0.255 N 
HETATM    2  N   UNL     1       4.156   3.189   1.915  1.00  0.00    -0.290 N 
ATOM      3  HN  UNL     1       3.435   3.351   1.212  1.00  0.00     0.187 HD
HETATM    4  C   UNL     1       4.501   4.124   2.744  1.00  0.00     0.116 A 
HETATM    5  C   UNL     1       5.537   3.966   3.785  1.00  0.00     0.042 A 
HETATM    6  C   UNL     1       6.123   2.773   3.879  1.00  0.00     0.078 A 
HETATM    7  C   UNL     1       5.751   1.663   2.974  1.00  0.00     0.262 A 
HETATM    8  O   UNL     1       6.282   0.570   3.137  1.00  0.00    -0.267 OA
ENDROOT
BRANCH   4   9
HETATM    9  C   UNL     1       3.841   5.502   2.669  1.00  0.00     0.272 C 
HETATM   10  O   UNL     1       4.461   6.451   3.146  1.00  0.00    -0.266 OA
HETATM   11  N   UNL     1       2.564   5.664   2.127  1.00  0.00    -0.332 N 
HETATM   12  C   UNL     1       2.023   7.012   1.985  1.00  0.00     0.127 C 
HETATM   13  C   UNL     1       1.743   4.706   1.368  1.00  0.00     0.185 C 
HETATM   14  C   UNL     1       0.988   6.934   0.868  1.00  0.00     0.022 C 
HETATM   15  C   UNL     1       1.191   5.562   0.235  1.00  0.00     0.038 C 
BRANCH  13  16
HETATM   16  C   UNL     1       0.618   4.098   2.220  1.00  0.00     0.163 C 
HETATM   17  O   UNL     1      -0.264   3.375   1.780  1.00  0.00    -0.648 OA
BRANCH  16  18
HETATM   18  O   UNL     1       0.685   4.440   3.531  1.00  0.00    -0.775 OA
HETATM   19  H   UNL     1       1.446   5.033   3.693  1.00  0.00     0.167 HD
ENDBRANCH  16  18
ENDBRANCH  13  16
ENDBRANCH   4   9
BRANCH   1  20
HETATM   20  C   UNL     1       4.392   0.951   1.039  1.00  0.00     0.178 C 
BRANCH  20  21
HETATM   21  C   UNL     1       4.622   1.390  -0.409  1.00  0.00     0.189 C 
BRANCH  21  22
HETATM   22  O   UNL     1       6.020   1.556  -0.663  1.00  0.00    -0.394 OA
HETATM   23  C   UNL     1       6.263   1.981  -1.997  1.00  0.00     0.201 C 
ENDBRANCH  21  22
ENDBRANCH  20  21
ENDBRANCH   1  20
TORSDOF 6
