REMARK  6 active torsions:
REMARK  status: ('A' for Active; 'I' for Inactive)
REMARK    1  A    between atoms: C_7  and  O_8 
REMARK    2  A    between atoms: O_8  and  C_9 
REMARK    3  A    between atoms: C_9  and  C_10 
REMARK       I    between atoms: C_10  and  N_12 
REMARK    4  A    between atoms: N_12  and  C_13 
REMARK    5  A    between atoms: C_19  and  O_20 
REMARK    6  A    between atoms: O_20  and  C_21 
ROOT
HETATM    1  C   UNL     1       2.601  -1.024   2.701  1.00  0.00     0.247 C 
HETATM    2  O   UNL     1       3.462  -0.278   3.164  1.00  0.00    -0.271 OA
HETATM    3  N   UNL     1       1.240  -0.790   2.665  1.00  0.00    -0.309 N 
HETATM    4  H   UNL     1       0.689  -1.359   2.043  1.00  0.00     0.170 HD
ENDROOT
BRANCH   3   5
HETATM    5  C   UNL     1       0.665   0.335   3.264  1.00  0.00     0.142 A 
HETATM    6  N   UNL     1       1.036   0.574   4.545  1.00  0.00    -0.350 N 
HETATM    7  C   UNL     1       0.552   1.673   5.157  1.00  0.00     0.090 A 
ATOM      8  HN  UNL     1       1.666  -0.062   5.034  1.00  0.00     0.166 HD
HETATM    9  C   UNL     1      -0.275   2.586   4.536  1.00  0.00     0.020 A 
HETATM   10  C   UNL     1      -0.657   2.328   3.226  1.00  0.00     0.042 A 
HETATM   11  C   UNL     1      -0.229   1.164   2.575  1.00  0.00     0.119 A 
BRANCH  11  12
HETATM   12  O   UNL     1      -0.669   1.094   1.284  1.00  0.00    -0.286 OA
BRANCH  12  13
HETATM   13  C   UNL     1      -0.876  -0.173   0.693  1.00  0.00     0.505 C 
HETATM   14  F   UNL     1      -1.257  -1.081   1.625  1.00  0.00    -0.184 F 
HETATM   15  F   UNL     1      -1.907  -0.050  -0.178  1.00  0.00    -0.184 F 
ENDBRANCH  12  13
ENDBRANCH  11  12
ENDBRANCH   3   5
BRANCH   1  16
HETATM   16  C   UNL     1       2.977  -2.305   1.958  1.00  0.00     0.271 C 
BRANCH  16  17
HETATM   17  O   UNL     1       2.569  -2.328   0.594  1.00  0.00    -0.376 OA
BRANCH  17  18
HETATM   18  C   UNL     1       3.180  -1.340  -0.248  1.00  0.00     0.125 C 
HETATM   19  C   UNL     1       2.558  -1.464  -1.663  1.00  0.00     0.011 C 
HETATM   20  C   UNL     1       2.659  -2.879  -2.248  1.00  0.00     0.012 C 
HETATM   21  C   UNL     1       3.176  -0.428  -2.616  1.00  0.00     0.007 C 
HETATM   22  C   UNL     1       4.703  -0.500  -2.659  1.00  0.00     0.001 C 
HETATM   23  C   UNL     1       5.312  -0.417  -1.266  1.00  0.00     0.002 C 
HETATM   24  C   UNL     1       4.710  -1.440  -0.305  1.00  0.00     0.032 C 
ENDBRANCH  17  18
ENDBRANCH  16  17
ENDBRANCH   1  16
TORSDOF 6
