REMARK  6 active torsions:
REMARK  status: ('A' for Active; 'I' for Inactive)
REMARK    1  A    between atoms: C_2  and  C_4 
REMARK    2  A    between atoms: C_4  and  C_5 
REMARK    3  A    between atoms: C_5  and  C_6 
REMARK    4  A    between atoms: C_10  and  N_11 
REMARK       I    between atoms: N_11  and  C_12 
REMARK    5  A    between atoms: C_12  and  C_14 
REMARK    6  A    between atoms: C_14  and  N_15 
ROOT
HETATM    1  N   UNL     1       3.565   3.690   0.996  1.00  0.00    -0.355 N 
HETATM    2  C   UNL     1       3.962   4.129   2.246  1.00  0.00     0.236 C 
HETATM    3  O   UNL     1       5.044   4.649   2.498  1.00  0.00    -0.272 OA
HETATM    4  H   UNL     1       2.621   3.333   0.914  1.00  0.00     0.162 HD
ENDROOT
BRANCH   1   5
HETATM    5  C   UNL     1       4.267   3.864  -0.282  1.00  0.00     0.088 C 
HETATM    6  C   UNL     1       5.188   2.714  -0.730  1.00  0.00     0.008 C 
HETATM    7  C   UNL     1       6.518   3.021  -0.036  1.00  0.00     0.007 C 
HETATM    8  C   UNL     1       6.594   4.546   0.045  1.00  0.00     0.002 C 
HETATM    9  C   UNL     1       5.212   5.070  -0.363  1.00  0.00     0.025 C 
BRANCH   6  10
HETATM   10  C   UNL     1       4.728   1.270  -0.511  1.00  0.00     0.007 C 
BRANCH  10  11
HETATM   11  C   UNL     1       3.436   0.858  -1.233  1.00  0.00     0.004 C 
BRANCH  11  12
HETATM   12  C   UNL     1       3.415   1.048  -2.764  1.00  0.00    -0.023 C 
HETATM   13  C   UNL     1       4.456   0.180  -3.483  1.00  0.00     0.009 C 
HETATM   14  C   UNL     1       2.022   0.722  -3.311  1.00  0.00     0.009 C 
ENDBRANCH  11  12
ENDBRANCH  10  11
ENDBRANCH   6  10
ENDBRANCH   1   5
BRANCH   2  15
HETATM   15  C   UNL     1       2.930   3.941   3.361  1.00  0.00     0.237 C 
BRANCH  15  16
HETATM   16  N   UNL     1       2.729   5.204   4.037  1.00  0.00    -0.285 N 
HETATM   17  C   UNL     1       3.432   5.738   5.053  1.00  0.00     0.204 A 
HETATM   18  N   UNL     1       3.020   6.903   5.449  1.00  0.00    -0.292 N 
HETATM   19  N   UNL     1       1.975   7.181   4.607  1.00  0.00    -0.250 N 
ATOM     20  HN  UNL     1       3.387   7.477   6.208  1.00  0.00     0.187 HD
HETATM   21  C   UNL     1       1.789   6.139   3.707  1.00  0.00     0.342 A 
HETATM   22  H   UNL     1       1.452   8.046   4.650  1.00  0.00     0.192 HD
HETATM   23  O   UNL     1       0.960   6.076   2.815  1.00  0.00    -0.245 OA
ENDBRANCH  15  16
ENDBRANCH   2  15
TORSDOF 6
