REMARK  6 active torsions:
REMARK  status: ('A' for Active; 'I' for Inactive)
REMARK    1  A    between atoms: O_2  and  C_3 
REMARK    2  A    between atoms: C_6  and  O_7 
REMARK    3  A    between atoms: C_9  and  C_11 
REMARK    4  A    between atoms: C_11  and  O_12 
REMARK    5  A    between atoms: C_11  and  C_13 
REMARK    6  A    between atoms: C_13  and  N_14 
ROOT
HETATM    1  C   UNL     1       5.831   0.426   3.492  1.00  0.00     0.172 C 
ENDROOT
BRANCH   1   2
HETATM    2  C   UNL     1       4.611   0.936   2.727  1.00  0.00     0.008 A 
HETATM    3  C   UNL     1       3.315   0.438   2.971  1.00  0.00     0.077 A 
HETATM    4  C   UNL     1       2.218   0.983   2.296  1.00  0.00     0.040 A 
HETATM    5  C   UNL     1       2.386   2.037   1.392  1.00  0.00     0.039 A 
HETATM    6  C   UNL     1       3.655   2.551   1.145  1.00  0.00     0.069 A 
HETATM    7  C   UNL     1       4.759   1.999   1.810  1.00  0.00     0.049 A 
BRANCH   3   8
HETATM    8  O   UNL     1       3.224  -0.542   3.926  1.00  0.00    -0.355 OA
HETATM    9  C   UNL     1       1.929  -1.041   4.237  1.00  0.00     0.210 C 
ENDBRANCH   3   8
BRANCH   6  10
HETATM   10  O   UNL     1       3.935   3.609   0.325  1.00  0.00    -0.356 OA
HETATM   11  C   UNL     1       2.929   3.976  -0.615  1.00  0.00     0.210 C 
ENDBRANCH   6  10
ENDBRANCH   1   2
BRANCH   1  12
HETATM   12  O   UNL     1       5.638   0.733   4.878  1.00  0.00    -0.389 OA
HETATM   13  H   UNL     1       4.718   0.494   5.091  1.00  0.00     0.210 HD
ENDBRANCH   1  12
BRANCH   1  14
HETATM   14  C   UNL     1       6.117  -1.079   3.312  1.00  0.00     0.167 C 
BRANCH  14  15
HETATM   15  N   UNL     1       7.316  -1.529   4.013  1.00  0.00    -0.332 N 
HETATM   16  C   UNL     1       7.383  -2.097   5.272  1.00  0.00     0.080 A 
HETATM   17  C   UNL     1       6.244  -2.285   6.207  1.00  0.00     0.089 C 
HETATM   18  N   UNL     1       8.618  -2.469   5.553  1.00  0.00    -0.344 N 
HETATM   19  C   UNL     1       9.374  -2.129   4.467  1.00  0.00     0.060 A 
ATOM     20  HN  UNL     1       8.943  -2.920   6.409  1.00  0.00     0.167 HD
HETATM   21  C   UNL     1      10.746  -2.307   4.253  1.00  0.00     0.032 A 
HETATM   22  C   UNL     1       8.589  -1.536   3.481  1.00  0.00     0.062 A 
HETATM   23  C   UNL     1      11.298  -1.884   3.041  1.00  0.00     0.002 A 
HETATM   24  C   UNL     1      10.498  -1.291   2.064  1.00  0.00     0.002 A 
HETATM   25  C   UNL     1       9.124  -1.103   2.261  1.00  0.00     0.032 A 
ENDBRANCH  14  15
ENDBRANCH   1  14
TORSDOF 6
