REMARK  5 active torsions:
REMARK  status: ('A' for Active; 'I' for Inactive)
REMARK    1  A    between atoms: C_2  and  C_3 
REMARK    2  A    between atoms: C_6  and  N_7 
REMARK       I    between atoms: N_7  and  C_8 
REMARK       I    between atoms: C_8  and  N_10 
REMARK    3  A    between atoms: N_10  and  C_11 
REMARK    4  A    between atoms: C_13  and  C_14 
REMARK    5  A    between atoms: C_14  and  O_15 
ROOT
HETATM    1  N   UNL     1       2.709  -8.289   2.289  1.00  0.00    -0.289 N 
HETATM    2  C   UNL     1       3.344  -7.170   1.811  1.00  0.00     0.322 C 
HETATM    3  O   UNL     1       3.688  -7.110   0.635  1.00  0.00    -0.247 OA
HETATM    4  N   UNL     1       3.625  -6.205   2.726  1.00  0.00    -0.335 N 
HETATM    5  H   UNL     1       2.625  -9.066   1.653  1.00  0.00     0.172 HD
HETATM    6  H   UNL     1       3.162  -6.294   3.628  1.00  0.00     0.164 HD
ENDROOT
BRANCH   1   7
HETATM    7  C   UNL     1       2.306  -8.445   3.585  1.00  0.00     0.153 A 
HETATM    8  N   UNL     1       2.246  -7.512   4.501  1.00  0.00    -0.339 N 
HETATM    9  C   UNL     1       1.852  -8.060   5.706  1.00  0.00     0.023 A 
ATOM     10  HN  UNL     1       2.459  -6.526   4.348  1.00  0.00     0.168 HD
HETATM   11  C   UNL     1       1.663  -9.433   5.677  1.00  0.00     0.005 A 
HETATM   12  S   UNL     1       1.876 -10.013   4.068  1.00  0.00    -0.057 SA
HETATM   13  C   UNL     1       1.321 -10.355   6.792  1.00  0.00     0.058 C 
BRANCH   9  14
HETATM   14  C   UNL     1       1.696  -7.131   6.866  1.00  0.00     0.054 C 
HETATM   15  C   UNL     1       3.004  -6.894   7.601  1.00  0.00     0.011 C 
ENDBRANCH   9  14
ENDBRANCH   1   7
BRANCH   4  16
HETATM   16  C   UNL     1       4.413  -5.032   2.488  1.00  0.00     0.109 C 
HETATM   17  C   UNL     1       3.554  -3.794   2.212  1.00  0.00     0.040 C 
HETATM   18  C   UNL     1       4.133  -2.663   3.084  1.00  0.00     0.034 C 
HETATM   19  C   UNL     1       4.907  -3.415   4.129  1.00  0.00    -0.022 C 
HETATM   20  C   UNL     1       5.076  -4.695   3.786  1.00  0.00    -0.005 C 
BRANCH  18  21
HETATM   21  C   UNL     1       3.037  -1.759   3.652  1.00  0.00     0.172 C 
BRANCH  21  22
HETATM   22  O   UNL     1       3.600  -0.687   4.405  1.00  0.00    -0.400 OA
HETATM   23  H   UNL     1       4.002  -1.073   5.202  1.00  0.00     0.209 HD
ENDBRANCH  21  22
ENDBRANCH  18  21
ENDBRANCH   4  16
TORSDOF 5
