REMARK  4 active torsions:
REMARK  status: ('A' for Active; 'I' for Inactive)
REMARK    1  A    between atoms: C_2  and  N_3 
REMARK    2  A    between atoms: N_3  and  C_4 
REMARK    3  A    between atoms: N_3  and  C_11 
REMARK    4  A    between atoms: C_4  and  C_5 
ROOT
HETATM    1  N   UNL     1       2.962   1.431   1.144  1.00  0.00    -0.364 N 
ENDROOT
BRANCH   1   2
HETATM    2  C   UNL     1       2.309   0.215   0.617  1.00  0.00     0.120 C 
HETATM    3  C   UNL     1       1.424  -0.494   1.633  1.00  0.00     0.026 C 
ENDBRANCH   1   2
BRANCH   1   4
HETATM    4  C   UNL     1       2.172   2.462   1.827  1.00  0.00     0.158 C 
BRANCH   4   5
HETATM    5  C   UNL     1       1.409   3.406   0.870  1.00  0.00     0.167 C 
HETATM    6  C   UNL     1       2.274   4.287  -0.059  1.00  0.00     0.303 C 
HETATM    7  N   UNL     1       2.869   5.488   0.560  1.00  0.00     0.087 N 
HETATM    8  C   UNL     1       1.870   6.215   1.353  1.00  0.00     0.295 C 
HETATM    9  H   UNL     1       3.186   6.104  -0.192  1.00  0.00     0.316 HD
HETATM   10  C   UNL     1       1.071   5.308   2.293  1.00  0.00     0.198 C 
HETATM   11  O   UNL     1       0.455   4.219   1.593  1.00  0.00    -0.381 OA
ENDBRANCH   4   5
ENDBRANCH   1   4
BRANCH   1  12
HETATM   12  C   UNL     1       4.354   1.433   1.249  1.00  0.00     0.117 A 
HETATM   13  C   UNL     1       5.066   2.614   1.444  1.00  0.00     0.051 A 
HETATM   14  C   UNL     1       6.456   2.615   1.559  1.00  0.00     0.022 A 
HETATM   15  C   UNL     1       7.111   1.412   1.468  1.00  0.00     0.107 A 
HETATM   16  N   UNL     1       6.448   0.267   1.257  1.00  0.00    -0.310 N 
HETATM   17  N   UNL     1       5.066   0.288   1.140  1.00  0.00    -0.286 N 
ATOM     18  HN  UNL     1       6.956  -0.614   1.183  1.00  0.00     0.186 HD
ATOM     19  HN  UNL     1       4.571  -0.587   0.966  1.00  0.00     0.188 HD
ENDBRANCH   1  12
TORSDOF 4
