REMARK  4 active torsions:
REMARK  status: ('A' for Active; 'I' for Inactive)
REMARK    1  A    between atoms: S_2  and  N_5 
REMARK       I    between atoms: N_8  and  C_11 
REMARK       I    between atoms: C_11  and  N_13 
REMARK    2  A    between atoms: N_13  and  C_14 
REMARK    3  A    between atoms: C_14  and  C_15 
REMARK    4  A    between atoms: C_15  and  C_16 
ROOT
HETATM    1  N   UNL     1       3.397  -1.052   0.834  1.00  0.00    -0.208 NA
HETATM    2  C   UNL     1       4.839  -1.304   0.522  1.00  0.00     0.127 C 
HETATM    3  C   UNL     1       5.042  -2.079  -0.791  1.00  0.00     0.143 C 
HETATM    4  N   UNL     1       4.206  -3.283  -0.861  1.00  0.00    -0.332 N 
HETATM    5  C   UNL     1       2.792  -3.084  -0.511  1.00  0.00     0.143 C 
HETATM    6  C   UNL     1       2.638  -2.350   0.827  1.00  0.00     0.127 C 
HETATM    7  C   UNL     1       4.615  -4.529  -1.288  1.00  0.00     0.318 C 
HETATM    8  O   UNL     1       3.901  -5.526  -1.227  1.00  0.00    -0.247 OA
HETATM    9  N   UNL     1       5.898  -4.583  -1.776  1.00  0.00    -0.343 N 
HETATM   10  H   UNL     1       6.136  -3.783  -2.342  1.00  0.00     0.164 HD
ENDROOT
BRANCH   9  11
HETATM   11  C   UNL     1       6.420  -5.857  -2.243  1.00  0.00     0.129 C 
BRANCH  11  12
HETATM   12  C   UNL     1       7.901  -5.759  -2.602  1.00  0.00     0.060 C 
BRANCH  12  13
HETATM   13  C   UNL     1       8.460  -7.065  -3.089  1.00  0.00    -0.041 A 
HETATM   14  C   UNL     1       9.028  -7.988  -2.207  1.00  0.00     0.010 A 
HETATM   15  C   UNL     1       9.543  -9.184  -2.698  1.00  0.00     0.018 A 
HETATM   16  C   UNL     1       9.465  -9.422  -4.060  1.00  0.00     0.087 A 
HETATM   17  N   UNL     1       8.911  -8.563  -4.941  1.00  0.00    -0.375 N 
HETATM   18  C   UNL     1       8.418  -7.410  -4.437  1.00  0.00     0.094 A 
ATOM     19  HN  UNL     1       8.867  -8.774  -5.938  1.00  0.00     0.164 HD
ENDBRANCH  12  13
ENDBRANCH  11  12
ENDBRANCH   9  11
BRANCH   1  20
HETATM   20  S   UNL     1       2.632   0.228   0.019  1.00  0.00     0.207 S 
HETATM   21  C   UNL     1       3.425   1.656   0.728  1.00  0.00     0.180 C 
HETATM   22  O   UNL     1       1.245   0.247   0.432  1.00  0.00    -0.212 OA
HETATM   23  O   UNL     1       2.994   0.156  -1.380  1.00  0.00    -0.212 OA
ENDBRANCH   1  20
TORSDOF 4
