REMARK  7 active torsions:
REMARK  status: ('A' for Active; 'I' for Inactive)
REMARK    1  A    between atoms: N_6  and  C_7 
REMARK    2  A    between atoms: C_7  and  C_8 
REMARK    3  A    between atoms: C_8  and  O_9 
REMARK    4  A    between atoms: C_8  and  C_10 
REMARK    5  A    between atoms: C_10  and  O_11 
REMARK    6  A    between atoms: O_11  and  C_12 
REMARK    7  A    between atoms: C_12  and  C_13 
ROOT
HETATM    1  C   UNL     1       6.563   0.174  -0.068  1.00  0.00     0.166 C 
ENDROOT
BRANCH   1   2
HETATM    2  N   UNL     1       5.110   0.101   0.030  1.00  0.00    -0.307 N 
HETATM    3  C   UNL     1       4.338   0.088  -1.099  1.00  0.00     0.186 A 
HETATM    4  N   UNL     1       3.049   0.083  -1.115  1.00  0.00    -0.355 N 
HETATM    5  C   UNL     1       2.404   0.088   0.097  1.00  0.00     0.017 A 
ATOM      6  HN  UNL     1       2.529   0.076  -1.993  1.00  0.00     0.166 HD
HETATM    7  C   UNL     1       0.901   0.144   0.001  1.00  0.00     0.069 C 
HETATM    8  C   UNL     1       3.034   0.047   1.286  1.00  0.00     0.028 A 
HETATM    9  C   UNL     1       4.521   0.020   1.275  1.00  0.00     0.256 A 
HETATM   10  C   UNL     1       2.341   0.043   2.614  1.00  0.00     0.056 C 
HETATM   11  O   UNL     1       5.159  -0.057   2.322  1.00  0.00    -0.267 OA
ENDBRANCH   1   2
BRANCH   1  12
HETATM   12  C   UNL     1       7.240  -1.211  -0.093  1.00  0.00     0.160 C 
BRANCH  12  13
HETATM   13  O   UNL     1       6.884  -1.924  -1.285  1.00  0.00    -0.392 OA
HETATM   14  H   UNL     1       7.260  -1.461  -2.052  1.00  0.00     0.210 HD
ENDBRANCH  12  13
BRANCH  12  15
HETATM   15  C   UNL     1       8.770  -1.067  -0.013  1.00  0.00     0.201 C 
BRANCH  15  16
HETATM   16  O   UNL     1       9.107  -0.380   1.182  1.00  0.00    -0.384 OA
BRANCH  16  17
HETATM   17  C   UNL     1      10.505  -0.151   1.329  1.00  0.00     0.213 C 
BRANCH  17  18
HETATM   18  C   UNL     1      10.683   0.553   2.639  1.00  0.00     0.006 A 
HETATM   19  C   UNL     1       9.918   0.451   3.786  1.00  0.00     0.017 A 
HETATM   20  C   UNL     1      10.397   1.278   4.840  1.00  0.00     0.008 A 
HETATM   21  C   UNL     1      11.519   1.984   4.467  1.00  0.00     0.050 A 
HETATM   22  S   UNL     1      11.988   1.643   2.858  1.00  0.00    -0.104 SA
ENDBRANCH  17  18
ENDBRANCH  16  17
ENDBRANCH  15  16
ENDBRANCH  12  15
ENDBRANCH   1  12
TORSDOF 7
