REMARK  6 active torsions:
REMARK  status: ('A' for Active; 'I' for Inactive)
REMARK    1  A    between atoms: C_2  and  C_3 
REMARK    2  A    between atoms: C_3  and  C_4 
REMARK    3  A    between atoms: C_6  and  N_7 
REMARK       I    between atoms: N_7  and  C_8 
REMARK    4  A    between atoms: C_8  and  C_10 
REMARK    5  A    between atoms: C_10  and  N_11 
REMARK    6  A    between atoms: C_19  and  O_20 
ROOT
HETATM    1  C   UNL     1       2.998   0.611   1.236  1.00  0.00     0.006 C 
HETATM    2  C   UNL     1       2.013   0.701   2.457  1.00  0.00     0.101 C 
HETATM    3  C   UNL     1       2.415   2.176   2.677  1.00  0.00     0.035 C 
HETATM    4  C   UNL     1       3.356   2.596   3.796  1.00  0.00     0.015 C 
HETATM    5  C   UNL     1       2.945   2.196   1.206  1.00  0.00     0.137 C 
ENDROOT
BRANCH   2   6
HETATM    6  N   UNL     1       2.259  -0.239   3.572  1.00  0.00    -0.354 N 
HETATM    7  C   UNL     1       1.292  -1.151   3.965  1.00  0.00     0.236 C 
HETATM    8  O   UNL     1       0.179  -1.221   3.447  1.00  0.00    -0.272 OA
HETATM    9  H   UNL     1       3.108  -0.174   4.122  1.00  0.00     0.163 HD
BRANCH   7  10
HETATM   10  C   UNL     1       1.695  -2.092   5.074  1.00  0.00     0.231 C 
BRANCH  10  11
HETATM   11  N   UNL     1       1.380  -1.566   6.387  1.00  0.00    -0.343 N 
HETATM   12  C   UNL     1       2.258  -1.418   7.424  1.00  0.00     0.109 A 
HETATM   13  C   UNL     1       1.491  -0.951   8.465  1.00  0.00     0.106 A 
HETATM   14  N   UNL     1       0.182  -0.818   8.085  1.00  0.00    -0.361 N 
HETATM   15  C   UNL     1       0.141  -1.204   6.830  1.00  0.00     0.182 A 
ATOM     16  HN  UNL     1      -0.597  -0.489   8.656  1.00  0.00     0.166 HD
ENDBRANCH  10  11
ENDBRANCH   7  10
ENDBRANCH   2   6
BRANCH   1  17
HETATM   17  C   UNL     1       2.310  -0.089   0.039  1.00  0.00     0.010 C 
HETATM   18  C   UNL     1       2.187  -1.596   0.204  1.00  0.00     0.006 C 
ENDBRANCH   1  17
BRANCH   1  19
HETATM   19  C   UNL     1       4.419   0.063   1.512  1.00  0.00     0.010 C 
HETATM   20  C   UNL     1       5.360   0.209   0.320  1.00  0.00     0.006 C 
ENDBRANCH   1  19
BRANCH   5  21
HETATM   21  O   UNL     1       2.004   2.809   0.291  1.00  0.00    -0.389 OA
HETATM   22  C   UNL     1       2.449   3.081  -1.029  1.00  0.00     0.202 C 
ENDBRANCH   5  21
TORSDOF 6
