REMARK  7 active torsions:
REMARK  status: ('A' for Active; 'I' for Inactive)
REMARK    1  A    between atoms: C_2  and  O_3 
REMARK    2  A    between atoms: C_2  and  C_9 
REMARK    3  A    between atoms: O_3  and  C_4 
REMARK    4  A    between atoms: C_4  and  C_5 
REMARK       I    between atoms: C_9  and  N_11 
REMARK    5  A    between atoms: N_11  and  C_12 
REMARK    6  A    between atoms: C_12  and  C_13 
REMARK    7  A    between atoms: C_19  and  N_20 
ROOT
HETATM    1  C   UNL     1       6.295   2.446  -1.874  1.00  0.00    -0.002 A 
HETATM    2  C   UNL     1       7.037   3.272  -2.730  1.00  0.00     0.013 A 
HETATM    3  C   UNL     1       8.416   3.354  -2.598  1.00  0.00     0.018 A 
HETATM    4  C   UNL     1       9.012   2.617  -1.596  1.00  0.00     0.089 A 
HETATM    5  N   UNL     1       8.331   1.827  -0.738  1.00  0.00    -0.356 N 
ATOM      6  HN  UNL     1       8.820   1.298  -0.016  1.00  0.00     0.166 HD
HETATM    7  C   UNL     1       6.985   1.754  -0.858  1.00  0.00     0.090 A 
ENDROOT
BRANCH   1   8
HETATM    8  C   UNL     1       4.794   2.341  -1.995  1.00  0.00     0.164 C 
BRANCH   8   9
HETATM    9  N   UNL     1       4.283   2.507  -3.344  1.00  0.00    -0.355 N 
HETATM   10  C   UNL     1       2.971   2.918  -3.529  1.00  0.00     0.246 C 
HETATM   11  O   UNL     1       2.247   3.259  -2.599  1.00  0.00    -0.271 OA
HETATM   12  H   UNL     1       4.718   1.947  -4.065  1.00  0.00     0.162 HD
BRANCH  10  13
HETATM   13  C   UNL     1       2.521   2.954  -5.011  1.00  0.00     0.209 C 
HETATM   14  C   UNL     1       1.001   2.811  -5.082  1.00  0.00     0.050 C 
BRANCH  13  15
HETATM   15  O   UNL     1       2.854   4.145  -5.726  1.00  0.00    -0.368 OA
BRANCH  15  16
HETATM   16  C   UNL     1       4.259   4.410  -5.804  1.00  0.00     0.286 C 
BRANCH  16  17
HETATM   17  C   UNL     1       4.619   5.611  -6.685  1.00  0.00     0.408 C 
HETATM   18  F   UNL     1       3.550   6.183  -7.274  1.00  0.00    -0.169 F 
HETATM   19  F   UNL     1       5.248   6.564  -5.956  1.00  0.00    -0.169 F 
HETATM   20  F   UNL     1       5.475   5.235  -7.666  1.00  0.00    -0.169 F 
ENDBRANCH  16  17
ENDBRANCH  15  16
ENDBRANCH  13  15
ENDBRANCH  10  13
ENDBRANCH   8   9
ENDBRANCH   1   8
BRANCH   7  21
HETATM   21  N   UNL     1       6.286   0.905  -0.004  1.00  0.00    -0.265 NA
HETATM   22  C   UNL     1       7.055  -0.217   0.566  1.00  0.00     0.123 C 
HETATM   23  C   UNL     1       6.027  -1.237   1.090  1.00  0.00     0.182 C 
HETATM   24  O   UNL     1       5.164  -0.655   2.089  1.00  0.00    -0.389 OA
HETATM   25  C   UNL     1       4.490   0.511   1.577  1.00  0.00     0.182 C 
HETATM   26  C   UNL     1       5.491   1.558   1.055  1.00  0.00     0.123 C 
ENDBRANCH   7  21
TORSDOF 7
