REMARK  3 active torsions:
REMARK  status: ('A' for Active; 'I' for Inactive)
REMARK    1  A    between atoms: C_7  and  N_8 
REMARK       I    between atoms: N_8  and  C_9 
REMARK       I    between atoms: C_9  and  N_11 
REMARK    2  A    between atoms: N_11  and  C_12 
REMARK    3  A    between atoms: C_12  and  C_13 
ROOT
HETATM    1  N   UNL     1       5.150  -2.763  -0.214  1.00  0.00    -0.295 N 
HETATM    2  C   UNL     1       4.455  -3.937  -0.218  1.00  0.00     0.321 C 
HETATM    3  O   UNL     1       3.255  -3.932   0.047  1.00  0.00    -0.247 OA
HETATM    4  N   UNL     1       5.170  -5.066  -0.459  1.00  0.00    -0.342 N 
HETATM    5  H   UNL     1       4.598  -1.979   0.091  1.00  0.00     0.172 HD
HETATM    6  H   UNL     1       6.096  -4.918  -0.856  1.00  0.00     0.164 HD
ENDROOT
BRANCH   1   7
HETATM    7  C   UNL     1       6.494  -2.552  -0.541  1.00  0.00     0.109 A 
HETATM    8  N   UNL     1       7.203  -3.541  -1.130  1.00  0.00    -0.352 N 
HETATM    9  C   UNL     1       8.494  -3.288  -1.438  1.00  0.00     0.090 A 
ATOM     10  HN  UNL     1       6.779  -4.446  -1.335  1.00  0.00     0.166 HD
HETATM   11  C   UNL     1       9.126  -2.090  -1.165  1.00  0.00     0.024 A 
HETATM   12  C   UNL     1       8.395  -1.077  -0.547  1.00  0.00    -0.057 A 
HETATM   13  C   UNL     1       9.036   0.229  -0.189  1.00  0.00     0.048 C 
HETATM   14  C   UNL     1       7.049  -1.312  -0.242  1.00  0.00     0.055 A 
ENDBRANCH   1   7
BRANCH   4  15
HETATM   15  C   UNL     1       4.609  -6.387  -0.467  1.00  0.00     0.129 C 
BRANCH  15  16
HETATM   16  C   UNL     1       4.209  -6.762  -1.858  1.00  0.00     0.003 A 
HETATM   17  C   UNL     1       3.613  -8.123  -2.109  1.00  0.00     0.007 A 
HETATM   18  C   UNL     1       4.979  -7.794  -2.644  1.00  0.00     0.007 A 
ENDBRANCH  15  16
ENDBRANCH   4  15
TORSDOF 3
