REMARK  5 active torsions:
REMARK  status: ('A' for Active; 'I' for Inactive)
REMARK    1  A    between atoms: C_2  and  N_3 
REMARK    2  A    between atoms: C_7  and  C_8 
REMARK    3  A    between atoms: C_8  and  N_9 
REMARK    4  A    between atoms: N_9  and  C_10 
REMARK    5  A    between atoms: C_15  and  O_16 
ROOT
HETATM    1  N   UNL     1      -0.872   4.312  -0.941  1.00  0.00    -0.262 NA
HETATM    2  H   UNL     1      -0.423   4.937  -0.278  1.00  0.00     0.130 HD
ENDROOT
BRANCH   1   3
HETATM    3  C   UNL     1       0.058   3.553  -1.767  1.00  0.00     0.129 C 
BRANCH   3   4
HETATM    4  C   UNL     1       0.998   2.751  -0.846  1.00  0.00     0.163 C 
HETATM    5  O   UNL     1       1.750   3.686  -0.038  1.00  0.00    -0.381 OA
HETATM    6  C   UNL     1       2.638   2.983   0.838  1.00  0.00     0.198 C 
HETATM    7  C   UNL     1       3.620   2.105   0.042  1.00  0.00     0.298 C 
HETATM    8  N   UNL     1       2.961   1.135  -0.866  1.00  0.00     0.092 N 
HETATM    9  C   UNL     1       1.958   1.868  -1.674  1.00  0.00     0.305 C 
BRANCH   8  10
HETATM   10  C   UNL     1       2.425  -0.005  -0.107  1.00  0.00     0.268 C 
HETATM   11  C   UNL     1       1.772  -1.080  -0.969  1.00  0.00     0.037 C 
ENDBRANCH   8  10
ENDBRANCH   3   4
ENDBRANCH   1   3
BRANCH   1  12
HETATM   12  C   UNL     1      -1.871   5.009  -1.591  1.00  0.00     0.159 A 
HETATM   13  N   UNL     1      -2.320   4.585  -2.780  1.00  0.00    -0.343 N 
HETATM   14  C   UNL     1      -3.344   5.265  -3.328  1.00  0.00     0.095 A 
ATOM     15  HN  UNL     1      -1.904   3.781  -3.250  1.00  0.00     0.167 HD
HETATM   16  C   UNL     1      -3.929   6.349  -2.732  1.00  0.00     0.073 A 
HETATM   17  C   UNL     1      -3.382   6.716  -1.530  1.00  0.00     0.145 A 
HETATM   18  N   UNL     1      -2.357   6.074  -0.943  1.00  0.00    -0.313 N 
ATOM     19  HN  UNL     1      -1.970   6.382  -0.051  1.00  0.00     0.170 HD
BRANCH  17  20
HETATM   20  O   UNL     1      -3.954   7.819  -0.921  1.00  0.00    -0.341 OA
HETATM   21  C   UNL     1      -3.354   8.150   0.327  1.00  0.00     0.211 C 
ENDBRANCH  17  20
ENDBRANCH   1  12
TORSDOF 5
