REMARK  6 active torsions:
REMARK  status: ('A' for Active; 'I' for Inactive)
REMARK    1  A    between atoms: O_2  and  C_3 
REMARK    2  A    between atoms: C_3  and  C_4 
REMARK    3  A    between atoms: C_4  and  N_5 
REMARK       I    between atoms: N_5  and  C_6 
REMARK    4  A    between atoms: C_6  and  C_8 
REMARK    5  A    between atoms: C_8  and  C_9 
REMARK    6  A    between atoms: C_12  and  C_15 
ROOT
HETATM    1  N   UNL     1       5.172   1.618   1.275  1.00  0.00    -0.358 N 
HETATM    2  C   UNL     1       6.475   1.264   1.549  1.00  0.00     0.223 C 
HETATM    3  O   UNL     1       6.935   0.165   1.246  1.00  0.00    -0.273 OA
HETATM    4  H   UNL     1       4.807   2.517   1.571  1.00  0.00     0.162 HD
ENDROOT
BRANCH   2   5
HETATM    5  C   UNL     1       7.313   2.331   2.227  1.00  0.00     0.160 C 
BRANCH   5   6
HETATM    6  C   UNL     1       7.787   1.891   3.573  1.00  0.00     0.025 A 
HETATM    7  C   UNL     1       8.605   0.812   3.855  1.00  0.00     0.077 A 
HETATM    8  S   UNL     1       8.894   0.708   5.538  1.00  0.00    -0.086 SA
HETATM    9  C   UNL     1       7.916   2.101   5.781  1.00  0.00     0.054 A 
HETATM   10  N   UNL     1       7.412   2.633   4.685  1.00  0.00    -0.356 N 
ATOM     11  HN  UNL     1       6.830   3.470   4.658  1.00  0.00     0.166 HD
BRANCH   9  12
HETATM   12  C   UNL     1       7.665   2.620   7.174  1.00  0.00     0.035 C 
HETATM   13  C   UNL     1       8.281   4.007   7.357  1.00  0.00     0.016 C 
HETATM   14  C   UNL     1       6.162   2.655   7.458  1.00  0.00     0.016 C 
ENDBRANCH   9  12
ENDBRANCH   5   6
ENDBRANCH   2   5
BRANCH   1  15
HETATM   15  C   UNL     1       4.273   0.665   0.652  1.00  0.00     0.160 C 
BRANCH  15  16
HETATM   16  C   UNL     1       2.957   1.366   0.288  1.00  0.00     0.076 C 
HETATM   17  C   UNL     1       1.867   0.378  -0.231  1.00  0.00     0.040 C 
HETATM   18  C   UNL     1       1.285   0.316   1.191  1.00  0.00     0.006 C 
HETATM   19  C   UNL     1       2.007   1.635   1.499  1.00  0.00     0.040 C 
BRANCH  16  20
HETATM   20  O   UNL     1       3.179   2.557  -0.520  1.00  0.00    -0.383 OA
HETATM   21  C   UNL     1       3.748   2.387  -1.812  1.00  0.00     0.202 C 
ENDBRANCH  16  20
ENDBRANCH  15  16
ENDBRANCH   1  15
TORSDOF 6
