REMARK  4 active torsions:
REMARK  status: ('A' for Active; 'I' for Inactive)
REMARK    1  A    between atoms: O_2  and  C_3 
REMARK    2  A    between atoms: C_9  and  N_10 
REMARK       I    between atoms: N_10  and  C_11 
REMARK       I    between atoms: C_11  and  N_13 
REMARK    3  A    between atoms: N_13  and  C_14 
REMARK    4  A    between atoms: C_14  and  C_15 
REMARK       I    between atoms: C_15  and  N_17 
ROOT
HETATM    1  N   UNL     1       2.822  -2.462  -0.884  1.00  0.00    -0.305 N 
HETATM    2  C   UNL     1       2.571  -1.604  -1.930  1.00  0.00     0.321 C 
HETATM    3  O   UNL     1       2.908  -0.424  -1.974  1.00  0.00    -0.247 OA
HETATM    4  N   UNL     1       1.858  -2.157  -2.961  1.00  0.00    -0.334 N 
HETATM    5  H   UNL     1       2.742  -3.459  -1.044  1.00  0.00     0.171 HD
HETATM    6  H   UNL     1       1.766  -3.157  -3.073  1.00  0.00     0.164 HD
ENDROOT
BRANCH   1   7
HETATM    7  C   UNL     1       3.348  -2.074   0.381  1.00  0.00     0.087 A 
HETATM    8  C   UNL     1       3.863  -3.015   1.280  1.00  0.00     0.169 A 
HETATM    9  N   UNL     1       4.304  -2.717   2.530  1.00  0.00    -0.345 N 
HETATM   10  C   UNL     1       4.290  -1.420   2.893  1.00  0.00     0.090 A 
ATOM     11  HN  UNL     1       4.632  -3.444   3.166  1.00  0.00     0.167 HD
HETATM   12  C   UNL     1       3.854  -0.404   2.070  1.00  0.00     0.019 A 
HETATM   13  C   UNL     1       3.367  -0.743   0.805  1.00  0.00     0.035 A 
BRANCH   8  14
HETATM   14  O   UNL     1       3.979  -4.331   0.859  1.00  0.00    -0.339 OA
HETATM   15  C   UNL     1       5.037  -4.990   1.565  1.00  0.00     0.211 C 
ENDBRANCH   8  14
ENDBRANCH   1   7
BRANCH   4  16
HETATM   16  C   UNL     1       1.581  -1.312  -4.113  1.00  0.00     0.227 C 
BRANCH  16  17
HETATM   17  C   UNL     1       0.810  -1.991  -5.244  1.00  0.00     0.237 C 
HETATM   18  O   UNL     1       0.439  -3.164  -5.149  1.00  0.00    -0.272 OA
HETATM   19  N   UNL     1       0.598  -1.227  -6.376  1.00  0.00    -0.351 N 
HETATM   20  C   UNL     1       1.009   0.155  -6.593  1.00  0.00     0.126 C 
HETATM   21  C   UNL     1      -0.023  -1.762  -7.569  1.00  0.00     0.126 C 
HETATM   22  C   UNL     1       0.932   0.367  -8.105  1.00  0.00     0.021 C 
HETATM   23  C   UNL     1       0.700  -1.026  -8.685  1.00  0.00     0.021 C 
ENDBRANCH  16  17
ENDBRANCH   4  16
TORSDOF 4
