REMARK  1 active torsions:
REMARK  status: ('A' for Active; 'I' for Inactive)
REMARK       I    between atoms: N_8  and  C_9 
REMARK       I    between atoms: C_9  and  N_11 
REMARK    1  A    between atoms: N_11  and  C_12 
ROOT
HETATM    1  C   UNL     1       5.890   5.784   1.220  1.00  0.00     0.078 C 
HETATM    2  C   UNL     1       6.397   4.460   0.788  1.00  0.00     0.066 A 
HETATM    3  N   UNL     1       7.635   4.241   0.397  1.00  0.00    -0.296 N 
ATOM      4  HN  UNL     1       8.347   4.967   0.319  1.00  0.00     0.187 HD
HETATM    5  N   UNL     1       7.851   2.918   0.107  1.00  0.00    -0.279 N 
ATOM      6  HN  UNL     1       8.745   2.544  -0.212  1.00  0.00     0.189 HD
HETATM    7  C   UNL     1       6.774   2.189   0.288  1.00  0.00     0.169 A 
HETATM    8  N   UNL     1       6.658   0.837   0.155  1.00  0.00    -0.288 N 
HETATM    9  C   UNL     1       7.721  -0.008   0.004  1.00  0.00     0.322 C 
HETATM   10  O   UNL     1       7.545  -1.219  -0.082  1.00  0.00    -0.247 OA
HETATM   11  N   UNL     1       8.965   0.560   0.053  1.00  0.00    -0.337 N 
HETATM   12  S   UNL     1       5.394   3.055   0.780  1.00  0.00    -0.038 SA
HETATM   13  H   UNL     1       5.752   0.404   0.262  1.00  0.00     0.172 HD
HETATM   14  H   UNL     1       9.022   1.562  -0.107  1.00  0.00     0.164 HD
ENDROOT
BRANCH  11  15
HETATM   15  C   UNL     1      10.199  -0.198   0.101  1.00  0.00     0.104 C 
HETATM   16  C   UNL     1      11.258   0.562   0.907  1.00  0.00     0.036 C 
HETATM   17  C   UNL     1      11.890   1.711   0.131  1.00  0.00     0.105 C 
HETATM   18  C   UNL     1      12.339   1.309  -1.253  1.00  0.00     0.217 C 
HETATM   19  O   UNL     1      13.343   1.767  -1.787  1.00  0.00    -0.274 OA
HETATM   20  N   UNL     1      11.491   0.488  -1.946  1.00  0.00    -0.359 N 
HETATM   21  C   UNL     1      10.720  -0.556  -1.296  1.00  0.00     0.147 C 
HETATM   22  H   UNL     1      11.841   0.283  -2.875  1.00  0.00     0.162 HD
ENDBRANCH  11  15
TORSDOF 1
