REMARK  4 active torsions:
REMARK  status: ('A' for Active; 'I' for Inactive)
REMARK    1  A    between atoms: C_2  and  C_3 
REMARK    2  A    between atoms: C_2  and  S_21 
REMARK       I    between atoms: C_3  and  N_5 
REMARK    3  A    between atoms: N_5  and  C_6 
REMARK    4  A    between atoms: C_9  and  N_13 
ROOT
HETATM    1  C   UNL     1       3.136   0.945  -3.857  1.00  0.00     0.050 A 
HETATM    2  C   UNL     1       3.120   2.318  -4.037  1.00  0.00     0.035 A 
HETATM    3  C   UNL     1       3.301   2.852  -5.313  1.00  0.00     0.051 A 
HETATM    4  C   UNL     1       3.484   2.023  -6.420  1.00  0.00     0.103 A 
HETATM    5  N   UNL     1       3.499   0.682  -6.257  1.00  0.00    -0.350 N 
ATOM      6  HN  UNL     1       3.640   0.061  -7.054  1.00  0.00     0.166 HD
HETATM    7  C   UNL     1       3.321   0.179  -5.004  1.00  0.00     0.119 A 
ENDROOT
BRANCH   1   8
HETATM    8  N   UNL     1       2.976   0.313  -2.603  1.00  0.00    -0.325 N 
HETATM    9  C   UNL     1       3.114   0.918  -1.363  1.00  0.00     0.240 C 
HETATM   10  O   UNL     1       3.432   2.095  -1.194  1.00  0.00    -0.272 OA
HETATM   11  H   UNL     1       2.939  -0.709  -2.624  1.00  0.00     0.169 HD
BRANCH   9  12
HETATM   12  C   UNL     1       2.815   0.031  -0.167  1.00  0.00     0.196 C 
HETATM   13  C   UNL     1       2.942   0.804   1.146  1.00  0.00     0.036 C 
BRANCH  12  14
HETATM   14  S   UNL     1       3.883  -1.397  -0.189  1.00  0.00     0.153 S 
HETATM   15  O   UNL     1       3.620  -2.173   1.007  1.00  0.00    -0.227 OA
HETATM   16  O   UNL     1       3.738  -2.022  -1.495  1.00  0.00    -0.227 OA
HETATM   17  C   UNL     1       5.540  -0.760  -0.065  1.00  0.00     0.162 C 
ENDBRANCH  12  14
ENDBRANCH   9  12
ENDBRANCH   1   8
BRANCH   4  18
HETATM   18  N   UNL     1       3.713   2.565  -7.669  1.00  0.00    -0.362 N 
HETATM   19  C   UNL     1       2.979   3.753  -8.130  1.00  0.00     0.156 C 
HETATM   20  C   UNL     1       1.991   3.392  -9.261  1.00  0.00     0.136 C 
HETATM   21  C   UNL     1       1.384   4.656  -9.857  1.00  0.00     0.041 C 
HETATM   22  O   UNL     1       2.648   2.684 -10.326  1.00  0.00    -0.378 OA
HETATM   23  C   UNL     1       3.220   1.453  -9.836  1.00  0.00     0.136 C 
HETATM   24  C   UNL     1       3.855   0.753 -11.030  1.00  0.00     0.041 C 
HETATM   25  C   UNL     1       4.270   1.731  -8.743  1.00  0.00     0.156 C 
ENDBRANCH   4  18
TORSDOF 4
