REMARK  2 active torsions:
REMARK  status: ('A' for Active; 'I' for Inactive)
REMARK       I    between atoms: N_2  and  C_3 
REMARK    1  A    between atoms: C_3  and  C_5 
REMARK    2  A    between atoms: N_7  and  C_11 
ROOT
HETATM    1  C   UNL     1       4.164   1.397  -2.362  1.00  0.00     0.103 A 
HETATM    2  C   UNL     1       4.257   1.824  -3.688  1.00  0.00     0.050 A 
HETATM    3  C   UNL     1       3.569   2.960  -4.120  1.00  0.00     0.028 A 
HETATM    4  C   UNL     1       2.783   3.659  -3.220  1.00  0.00     0.060 A 
HETATM    5  C   UNL     1       2.088   4.846  -3.603  1.00  0.00     0.101 C 
HETATM    6  N   UNL     1       1.536   5.815  -3.921  1.00  0.00    -0.191 NA
HETATM    7  C   UNL     1       2.712   3.173  -1.924  1.00  0.00     0.112 A 
HETATM    8  N   UNL     1       3.382   2.072  -1.485  1.00  0.00    -0.351 N 
ATOM      9  HN  UNL     1       3.297   1.762  -0.517  1.00  0.00     0.166 HD
ENDROOT
BRANCH   1  10
HETATM   10  N   UNL     1       4.866   0.313  -1.905  1.00  0.00    -0.362 N 
HETATM   11  C   UNL     1       5.175   0.156  -0.478  1.00  0.00     0.166 C 
HETATM   12  C   UNL     1       4.641  -1.184   0.049  1.00  0.00     0.231 C 
HETATM   13  O   UNL     1       5.191  -2.260  -0.741  1.00  0.00    -0.373 OA
HETATM   14  C   UNL     1       4.807  -2.140  -2.121  1.00  0.00     0.189 C 
HETATM   15  C   UNL     1       5.285  -0.816  -2.744  1.00  0.00     0.150 C 
BRANCH  12  16
HETATM   16  C   UNL     1       3.102  -1.271   0.227  1.00  0.00     0.247 C 
HETATM   17  N   UNL     1       2.435  -0.088   0.484  1.00  0.00    -0.363 N 
HETATM   18  C   UNL     1       1.003  -0.104   0.638  1.00  0.00     0.149 C 
HETATM   19  H   UNL     1       2.817   0.750   0.048  1.00  0.00     0.162 HD
HETATM   20  O   UNL     1       2.508  -2.352   0.206  1.00  0.00    -0.271 OA
ENDBRANCH  12  16
ENDBRANCH   1  10
TORSDOF 2
