REMARK  6 active torsions:
REMARK  status: ('A' for Active; 'I' for Inactive)
REMARK    1  A    between atoms: N_7  and  C_13 
REMARK    2  A    between atoms: C_10  and  N_14 
REMARK    3  A    between atoms: C_13  and  O_15 
REMARK    4  A    between atoms: O_15  and  C_18 
REMARK    5  A    between atoms: O_16  and  C_17 
REMARK    6  A    between atoms: C_17  and  C_18 
ROOT
HETATM    1  C   UNL     1       0.213   0.693   0.001  1.00  0.00     0.145 A 
HETATM    2  C   UNL     1       0.265  -0.678   0.015  1.00  0.00     0.146 A 
HETATM    3  N   UNL     1      -2.160  -0.679  -0.067  1.00  0.00    -0.298 N 
ATOM      4  HN  UNL     1      -3.069  -1.140  -0.104  1.00  0.00     0.171 HD
HETATM    5  N   UNL     1      -0.942   1.369  -0.043  1.00  0.00    -0.317 N 
HETATM    6  C   UNL     1      -0.989  -1.446   0.001  1.00  0.00     0.278 A 
HETATM    7  N   UNL     1       1.493   1.139   0.034  1.00  0.00    -0.305 N 
HETATM    8  N   UNL     1       1.577  -1.095   0.041  1.00  0.00    -0.345 N 
ATOM      9  HN  UNL     1       1.924  -2.054   0.054  1.00  0.00     0.167 HD
HETATM   10  C   UNL     1      -2.090   0.620  -0.083  1.00  0.00     0.159 A 
HETATM   11  C   UNL     1       2.288   0.018   0.046  1.00  0.00     0.187 A 
HETATM   12  O   UNL     1      -1.008  -2.671   0.038  1.00  0.00    -0.265 OA
HETATM   13  H   UNL     1      -1.003   2.379  -0.018  1.00  0.00     0.170 HD
ENDROOT
BRANCH   7  14
HETATM   14  C   UNL     1       1.965   2.506  -0.005  1.00  0.00     0.301 C 
BRANCH  14  15
HETATM   15  O   UNL     1       1.459   3.188   1.141  1.00  0.00    -0.369 OA
BRANCH  15  16
HETATM   16  C   UNL     1       1.950   4.526   1.206  1.00  0.00     0.196 C 
BRANCH  16  17
HETATM   17  C   UNL     1       1.427   5.199   2.470  1.00  0.00     0.190 C 
BRANCH  17  18
HETATM   18  O   UNL     1       1.873   6.547   2.516  1.00  0.00    -0.399 OA
HETATM   19  H   UNL     1       1.541   6.928   3.348  1.00  0.00     0.209 HD
ENDBRANCH  17  18
ENDBRANCH  16  17
ENDBRANCH  15  16
ENDBRANCH  14  15
ENDBRANCH   7  14
BRANCH  10  20
HETATM   20  N   UNL     1      -3.220   1.364  -0.187  1.00  0.00    -0.274 NA
HETATM   21  H   UNL     1      -4.052   0.804  -0.020  1.00  0.00     0.127 HD
HETATM   22  H   UNL     1      -3.242   2.242   0.312  1.00  0.00     0.127 HD
ENDBRANCH  10  20
TORSDOF 6
