REMARK  5 active torsions:
REMARK  status: ('A' for Active; 'I' for Inactive)
REMARK       I    between atoms: C_2  and  N_3 
REMARK       I    between atoms: C_2  and  N_14 
REMARK    1  A    between atoms: N_3  and  C_4 
REMARK    2  A    between atoms: C_4  and  C_5 
REMARK    3  A    between atoms: C_5  and  C_6 
REMARK    4  A    between atoms: C_6  and  N_7 
REMARK    5  A    between atoms: N_14  and  C_15 
ROOT
HETATM    1  O   UNL     1       2.909  -1.098   2.822  1.00  0.00    -0.247 OA
HETATM    2  C   UNL     1       1.846  -1.713   2.767  1.00  0.00     0.322 C 
HETATM    3  N   UNL     1       1.408  -2.334   1.636  1.00  0.00    -0.343 N 
HETATM    4  N   UNL     1       1.096  -1.852   3.893  1.00  0.00    -0.288 N 
HETATM    5  H   UNL     1       0.488  -2.766   1.655  1.00  0.00     0.164 HD
HETATM    6  H   UNL     1       1.514  -1.495   4.739  1.00  0.00     0.172 HD
ENDROOT
BRANCH   3   7
HETATM    7  C   UNL     1       2.232  -2.495   0.457  1.00  0.00     0.126 C 
BRANCH   7   8
HETATM    8  C   UNL     1       3.263  -3.619   0.610  1.00  0.00     0.040 C 
BRANCH   8   9
HETATM    9  C   UNL     1       2.595  -4.982   0.798  1.00  0.00     0.136 C 
BRANCH   9  10
HETATM   10  N   UNL     1       3.548  -6.065   0.947  1.00  0.00    -0.288 N 
HETATM   11  C   UNL     1       4.053  -6.482   2.150  1.00  0.00     0.226 C 
HETATM   12  O   UNL     1       3.800  -6.017   3.251  1.00  0.00    -0.273 OA
HETATM   13  C   UNL     1       5.025  -7.598   1.904  1.00  0.00     0.112 C 
HETATM   14  C   UNL     1       4.795  -7.967   0.452  1.00  0.00     0.112 C 
HETATM   15  C   UNL     1       4.048  -6.787  -0.101  1.00  0.00     0.226 C 
HETATM   16  O   UNL     1       3.884  -6.568  -1.289  1.00  0.00    -0.273 OA
ENDBRANCH   9  10
ENDBRANCH   8   9
ENDBRANCH   7   8
ENDBRANCH   3   7
BRANCH   4  17
HETATM   17  C   UNL     1      -0.079  -2.536   3.986  1.00  0.00     0.168 A 
HETATM   18  N   UNL     1      -0.824  -3.029   3.023  1.00  0.00    -0.279 N 
HETATM   19  N   UNL     1      -1.921  -3.704   3.520  1.00  0.00    -0.303 N 
ATOM     20  HN  UNL     1      -0.617  -2.926   2.030  1.00  0.00     0.189 HD
HETATM   21  C   UNL     1      -1.935  -3.703   4.837  1.00  0.00     0.160 A 
ATOM     22  HN  UNL     1      -2.632  -4.148   2.939  1.00  0.00     0.186 HD
HETATM   23  S   UNL     1      -0.647  -2.830   5.566  1.00  0.00    -0.046 SA
ENDBRANCH   4  17
TORSDOF 5
