REMARK  11 active torsions:
REMARK  status: ('A' for Active; 'I' for Inactive)
REMARK    1  A    between atoms: N_2  and  C_12 
REMARK    2  A    between atoms: C_6  and  N_14 
REMARK    3  A    between atoms: C_12  and  C_15 
REMARK    4  A    between atoms: N_14  and  C_18 
REMARK    5  A    between atoms: N_14  and  C_23 
REMARK    6  A    between atoms: C_15  and  C_20 
REMARK    7  A    between atoms: C_15  and  C_24 
REMARK    8  A    between atoms: C_18  and  C_22 
REMARK    9  A    between atoms: C_21  and  C_23 
REMARK   10  A    between atoms: C_22  and  C_28 
REMARK   11  A    between atoms: C_24  and  O_26 
ROOT
HETATM    1  N   UNL     1       0.106  -3.307   4.870  1.00  0.00    -0.197 NA
HETATM    2  C   UNL     1      -0.335  -2.995   3.848  1.00  0.00     0.060 C 
HETATM    3  C   UNL     1      -0.904  -2.603   2.548  1.00  0.00     0.143 C 
ENDROOT
BRANCH   3   4
HETATM    4  C   UNL     1      -0.081  -3.209   1.400  1.00  0.00     0.138 C 
BRANCH   4   5
HETATM    5  N   UNL     1      -0.634  -2.941   0.053  1.00  0.00    -0.364 N 
BRANCH   5   6
HETATM    6  C   UNL     1      -0.727  -1.575  -0.256  1.00  0.00     0.135 A 
HETATM    7  C   UNL     1       0.391  -0.702  -0.234  1.00  0.00     0.122 A 
HETATM    8  C   UNL     1       0.158   0.644  -0.481  1.00  0.00     0.140 A 
HETATM    9  N   UNL     1       1.733  -0.914   0.024  1.00  0.00    -0.346 N 
HETATM   10  N   UNL     1       1.380   1.251  -0.342  1.00  0.00    -0.327 N 
HETATM   11  N   UNL     1      -1.018   1.229  -0.755  1.00  0.00    -0.336 N 
HETATM   12  C   UNL     1       2.294   0.273  -0.055  1.00  0.00     0.185 A 
HETATM   13  C   UNL     1      -2.011   0.319  -0.772  1.00  0.00     0.183 A 
ATOM     14  HN  UNL     1      -1.143   2.227  -0.927  1.00  0.00     0.168 HD
HETATM   15  N   UNL     1      -1.938  -1.013  -0.543  1.00  0.00    -0.337 N 
ATOM     16  HN  UNL     1      -2.778  -1.590  -0.584  1.00  0.00     0.168 HD
ATOM     17  HN  UNL     1       2.190  -1.802   0.231  1.00  0.00     0.167 HD
BRANCH  10  18
HETATM   18  C   UNL     1       1.612   2.675  -0.249  1.00  0.00     0.138 C 
BRANCH  18  19
HETATM   19  C   UNL     1       2.609   3.325  -1.242  1.00  0.00     0.034 C 
BRANCH  19  20
HETATM   20  C   UNL     1       2.098   3.480  -2.705  1.00  0.00     0.019 C 
HETATM   21  C   UNL     1       1.791   2.189  -3.466  1.00  0.00     0.172 C 
HETATM   22  O   UNL     1       2.755   2.071  -4.518  1.00  0.00    -0.391 OA
HETATM   23  C   UNL     1       3.133   3.393  -4.889  1.00  0.00     0.168 C 
HETATM   24  C   UNL     1       3.149   4.162  -3.591  1.00  0.00     0.033 C 
ENDBRANCH  19  20
BRANCH  19  25
HETATM   25  C   UNL     1       2.965   4.715  -0.657  1.00  0.00     0.170 C 
BRANCH  25  26
HETATM   26  O   UNL     1       1.795   5.495  -0.444  1.00  0.00    -0.400 OA
HETATM   27  H   UNL     1       1.425   5.744  -1.309  1.00  0.00     0.209 HD
ENDBRANCH  25  26
ENDBRANCH  19  25
ENDBRANCH  18  19
ENDBRANCH  10  18
ENDBRANCH   5   6
BRANCH   5  28
HETATM   28  C   UNL     1      -1.705  -3.833  -0.403  1.00  0.00     0.125 C 
BRANCH  28  29
HETATM   29  C   UNL     1      -1.805  -3.966  -1.931  1.00  0.00     0.024 C 
BRANCH  29  30
HETATM   30  C   UNL     1      -0.548  -4.434  -2.696  1.00  0.00    -0.021 C 
HETATM   31  C   UNL     1      -0.013  -5.788  -2.229  1.00  0.00     0.009 C 
HETATM   32  C   UNL     1      -0.882  -4.519  -4.193  1.00  0.00     0.009 C 
ENDBRANCH  29  30
ENDBRANCH  28  29
ENDBRANCH   5  28
ENDBRANCH   4   5
ENDBRANCH   3   4
TORSDOF 11
