REMARK  5 active torsions:
REMARK  status: ('A' for Active; 'I' for Inactive)
REMARK    1  A    between atoms: N_6  and  C_7 
REMARK    2  A    between atoms: C_7  and  C_8 
REMARK    3  A    between atoms: C_8  and  N_9 
REMARK    4  A    between atoms: N_9  and  C_10 
REMARK    5  A    between atoms: C_10  and  C_11 
REMARK       I    between atoms: C_11  and  N_13 
ROOT
HETATM    1  N   UNL     1       6.375  -4.132  -0.073  1.00  0.00     0.093 N 
HETATM    2  H   UNL     1       6.989  -3.998   0.732  1.00  0.00     0.316 HD
ENDROOT
BRANCH   1   3
HETATM    3  C   UNL     1       5.245  -3.190  -0.024  1.00  0.00     0.291 C 
BRANCH   3   4
HETATM    4  C   UNL     1       4.379  -3.289   1.236  1.00  0.00     0.178 C 
BRANCH   4   5
HETATM    5  N   UNL     1       3.263  -2.367   1.197  1.00  0.00    -0.302 N 
HETATM    6  N   UNL     1       2.104  -2.751   0.633  1.00  0.00    -0.310 N 
HETATM    7  C   UNL     1       1.296  -1.709   0.839  1.00  0.00     0.115 A 
ATOM      8  HN  UNL     1       1.893  -3.630   0.160  1.00  0.00     0.186 HD
HETATM    9  C   UNL     1       1.937  -0.650   1.519  1.00  0.00    -0.028 A 
HETATM   10  C   UNL     1       1.368   0.653   1.920  1.00  0.00     0.051 C 
HETATM   11  C   UNL     1       3.218  -1.114   1.734  1.00  0.00     0.118 A 
ENDBRANCH   4   5
ENDBRANCH   3   4
ENDBRANCH   1   3
BRANCH   1  12
HETATM   12  C   UNL     1       5.911  -5.531  -0.083  1.00  0.00     0.372 C 
BRANCH  12  13
HETATM   13  C   UNL     1       7.099  -6.490  -0.197  1.00  0.00     0.248 C 
HETATM   14  O   UNL     1       7.451  -7.143   0.790  1.00  0.00    -0.271 OA
HETATM   15  N   UNL     1       7.748  -6.591  -1.418  1.00  0.00    -0.347 N 
HETATM   16  C   UNL     1       8.727  -7.664  -1.595  1.00  0.00     0.152 C 
HETATM   17  C   UNL     1       7.259  -5.998  -2.667  1.00  0.00     0.152 C 
HETATM   18  C   UNL     1       9.805  -7.291  -2.616  1.00  0.00     0.187 C 
HETATM   19  O   UNL     1       9.225  -6.842  -3.850  1.00  0.00    -0.388 OA
HETATM   20  C   UNL     1       8.412  -5.682  -3.623  1.00  0.00     0.187 C 
ENDBRANCH  12  13
ENDBRANCH   1  12
TORSDOF 5
