REMARK  5 active torsions:
REMARK  status: ('A' for Active; 'I' for Inactive)
REMARK    1  A    between atoms: O_2  and  C_3 
REMARK    2  A    between atoms: C_5  and  N_6 
REMARK       I    between atoms: N_6  and  C_7 
REMARK       I    between atoms: C_7  and  N_9 
REMARK    3  A    between atoms: N_9  and  C_10 
REMARK    4  A    between atoms: C_10  and  C_12 
REMARK    5  A    between atoms: C_12  and  C_13 
ROOT
HETATM    1  N   UNL     1       2.900   4.768  -1.265  1.00  0.00    -0.295 N 
HETATM    2  C   UNL     1       2.100   5.065  -0.199  1.00  0.00     0.322 C 
HETATM    3  O   UNL     1       1.733   4.170   0.558  1.00  0.00    -0.247 OA
HETATM    4  N   UNL     1       1.789   6.373  -0.020  1.00  0.00    -0.339 N 
HETATM    5  H   UNL     1       3.156   3.789  -1.298  1.00  0.00     0.172 HD
HETATM    6  H   UNL     1       2.189   7.014  -0.701  1.00  0.00     0.164 HD
ENDROOT
BRANCH   1   7
HETATM    7  C   UNL     1       3.386   5.625  -2.258  1.00  0.00     0.114 A 
HETATM    8  C   UNL     1       4.314   5.138  -3.151  1.00  0.00     0.104 A 
HETATM    9  C   UNL     1       4.740   6.027  -4.108  1.00  0.00     0.146 A 
HETATM   10  N   UNL     1       4.295   7.291  -4.214  1.00  0.00    -0.333 N 
HETATM   11  C   UNL     1       3.396   7.659  -3.305  1.00  0.00     0.183 A 
ATOM     12  HN  UNL     1       4.624   7.925  -4.942  1.00  0.00     0.168 HD
HETATM   13  N   UNL     1       2.931   6.892  -2.315  1.00  0.00    -0.338 N 
ATOM     14  HN  UNL     1       2.262   7.249  -1.633  1.00  0.00     0.168 HD
BRANCH   9  15
HETATM   15  O   UNL     1       5.686   5.566  -5.002  1.00  0.00    -0.341 OA
HETATM   16  C   UNL     1       6.017   6.535  -5.996  1.00  0.00     0.211 C 
ENDBRANCH   9  15
ENDBRANCH   1   7
BRANCH   4  17
HETATM   17  C   UNL     1       1.105   6.918   1.141  1.00  0.00     0.082 C 
HETATM   18  C   UNL     1       2.115   7.131   2.269  1.00  0.00     0.032 C 
BRANCH  17  19
HETATM   19  C   UNL     1       0.411   8.246   0.784  1.00  0.00     0.029 C 
BRANCH  19  20
HETATM   20  C   UNL     1      -0.618   8.088  -0.305  1.00  0.00    -0.013 A 
HETATM   21  C   UNL     1      -1.472   9.266  -0.701  1.00  0.00     0.005 A 
HETATM   22  C   UNL     1      -2.090   8.098   0.017  1.00  0.00     0.005 A 
ENDBRANCH  19  20
ENDBRANCH  17  19
ENDBRANCH   4  17
TORSDOF 5
