REMARK  6 active torsions:
REMARK  status: ('A' for Active; 'I' for Inactive)
REMARK    1  A    between atoms: O_2  and  C_3 
REMARK    2  A    between atoms: C_3  and  C_4 
REMARK    3  A    between atoms: C_4  and  N_5 
REMARK    4  A    between atoms: C_6  and  S_7 
REMARK    5  A    between atoms: S_7  and  C_8 
REMARK    6  A    between atoms: C_8  and  C_9 
REMARK       I    between atoms: C_9  and  N_11 
ROOT
HETATM    1  N   UNL     1       4.972   1.749   1.947  1.00  0.00    -0.324 N 
HETATM    2  C   UNL     1       4.798   3.106   1.740  1.00  0.00     0.148 A 
HETATM    3  N   UNL     1       5.295   3.828   2.710  1.00  0.00    -0.335 N 
ATOM      4  HN  UNL     1       5.326   4.846   2.771  1.00  0.00     0.168 HD
HETATM    5  C   UNL     1       5.766   2.924   3.628  1.00  0.00     0.062 A 
HETATM    6  C   UNL     1       6.312   3.154   4.901  1.00  0.00     0.055 A 
HETATM    7  C   UNL     1       6.761   2.070   5.656  1.00  0.00     0.036 A 
HETATM    8 CL   UNL     1       7.398   2.323   7.235  1.00  0.00    -0.084 Cl
HETATM    9  C   UNL     1       6.707   0.779   5.151  1.00  0.00     0.026 A 
HETATM   10  C   UNL     1       6.161   0.530   3.893  1.00  0.00     0.034 A 
HETATM   11  C   UNL     1       5.654   1.611   3.146  1.00  0.00     0.063 A 
ENDROOT
BRANCH   2  12
HETATM   12  S   UNL     1       3.937   3.749   0.376  1.00  0.00    -0.084 SA
BRANCH  12  13
HETATM   13  C   UNL     1       5.098   5.003  -0.230  1.00  0.00     0.184 C 
BRANCH  13  14
HETATM   14  C   UNL     1       6.305   4.335  -0.844  1.00  0.00     0.225 C 
HETATM   15  O   UNL     1       6.317   3.831  -1.965  1.00  0.00    -0.273 OA
HETATM   16  N   UNL     1       7.427   4.304  -0.063  1.00  0.00    -0.369 N 
HETATM   17  H   UNL     1       7.362   4.457   0.941  1.00  0.00     0.159 HD
HETATM   18  H   UNL     1       8.223   3.785  -0.415  1.00  0.00     0.159 HD
ENDBRANCH  13  14
ENDBRANCH  12  13
ENDBRANCH   2  12
BRANCH   1  19
HETATM   19  C   UNL     1       4.440   0.707   1.077  1.00  0.00     0.157 C 
BRANCH  19  20
HETATM   20  C   UNL     1       4.761  -0.719   1.489  1.00  0.00     0.187 C 
BRANCH  20  21
HETATM   21  O   UNL     1       4.230  -1.710   0.614  1.00  0.00    -0.394 OA
HETATM   22  C   UNL     1       4.574  -3.007   1.111  1.00  0.00     0.201 C 
ENDBRANCH  20  21
ENDBRANCH  19  20
ENDBRANCH   1  19
TORSDOF 6
