REMARK  3 active torsions:
REMARK  status: ('A' for Active; 'I' for Inactive)
REMARK       I    between atoms: C_2  and  N_3 
REMARK       I    between atoms: C_2  and  N_18 
REMARK    1  A    between atoms: N_3  and  C_4 
REMARK    2  A    between atoms: C_7  and  C_10 
REMARK       I    between atoms: C_10  and  N_12 
REMARK    3  A    between atoms: N_18  and  C_19 
ROOT
HETATM    1  C   UNL     1       1.900  -2.281  -0.103  1.00  0.00     0.086 C 
HETATM    2  C   UNL     1       1.613  -2.434   1.398  1.00  0.00     0.026 C 
HETATM    3  C   UNL     1       2.215  -3.670   2.059  1.00  0.00     0.016 C 
HETATM    4  C   UNL     1       1.893  -4.956   1.299  1.00  0.00     0.078 C 
HETATM    5  C   UNL     1       2.402  -4.850  -0.142  1.00  0.00     0.016 C 
HETATM    6  C   UNL     1       1.964  -3.596  -0.903  1.00  0.00     0.026 C 
ENDROOT
BRANCH   1   7
HETATM    7  N   UNL     1       3.024  -1.381  -0.360  1.00  0.00    -0.338 N 
HETATM    8  C   UNL     1       4.328  -1.675  -0.199  1.00  0.00     0.322 C 
HETATM    9  O   UNL     1       4.748  -2.785   0.118  1.00  0.00    -0.247 OA
HETATM   10  N   UNL     1       5.241  -0.698  -0.422  1.00  0.00    -0.295 N 
HETATM   11  H   UNL     1       6.181  -1.053  -0.329  1.00  0.00     0.172 HD
HETATM   12  H   UNL     1       2.830  -0.405  -0.570  1.00  0.00     0.164 HD
BRANCH  10  13
HETATM   13  C   UNL     1       5.095   0.672  -0.640  1.00  0.00     0.108 A 
HETATM   14  C   UNL     1       6.274   1.404  -0.762  1.00  0.00     0.049 A 
HETATM   15  C   UNL     1       6.210   2.786  -0.906  1.00  0.00     0.005 A 
HETATM   16  C   UNL     1       4.970   3.402  -0.937  1.00  0.00     0.017 A 
HETATM   17  C   UNL     1       3.842   2.598  -0.829  1.00  0.00     0.089 A 
HETATM   18  N   UNL     1       3.874   1.250  -0.683  1.00  0.00    -0.352 N 
ATOM     19  HN  UNL     1       3.019   0.699  -0.609  1.00  0.00     0.166 HD
ENDBRANCH  10  13
ENDBRANCH   1   7
BRANCH   4  20
HETATM   20  C   UNL     1       0.401  -5.321   1.373  1.00  0.00     0.224 C 
HETATM   21  O   UNL     1      -0.367  -5.004   0.462  1.00  0.00    -0.273 OA
HETATM   22  N   UNL     1      -0.062  -5.997   2.496  1.00  0.00    -0.350 N 
HETATM   23  C   UNL     1      -1.444  -6.502   2.503  1.00  0.00     0.136 C 
HETATM   24  C   UNL     1       0.702  -6.263   3.721  1.00  0.00     0.136 C 
HETATM   25  C   UNL     1      -2.303  -5.897   3.614  1.00  0.00     0.093 C 
HETATM   26  S   UNL     1      -1.600  -6.197   5.272  1.00  0.00    -0.166 SA
HETATM   27  C   UNL     1       0.080  -5.574   4.938  1.00  0.00     0.093 C 
ENDBRANCH   4  20
TORSDOF 3
