REMARK  8 active torsions:
REMARK  status: ('A' for Active; 'I' for Inactive)
REMARK    1  A    between atoms: C_7  and  O_8 
REMARK    2  A    between atoms: O_8  and  C_9 
REMARK    3  A    between atoms: C_9  and  C_10 
REMARK    4  A    between atoms: C_10  and  O_11 
REMARK    5  A    between atoms: C_10  and  C_12 
REMARK    6  A    between atoms: C_12  and  N_13 
REMARK    7  A    between atoms: C_14  and  C_15 
REMARK    8  A    between atoms: C_15  and  O_16 
ROOT
HETATM    1  C   UNL     1       4.789  -6.289  -0.663  1.00  0.00     0.164 C 
ENDROOT
BRANCH   1   2
HETATM    2  C   UNL     1       5.432  -4.904  -0.525  1.00  0.00     0.160 C 
BRANCH   2   3
HETATM    3  C   UNL     1       4.450  -3.767  -0.175  1.00  0.00     0.209 C 
BRANCH   3   4
HETATM    4  O   UNL     1       5.201  -2.548  -0.123  1.00  0.00    -0.348 OA
BRANCH   4   5
HETATM    5  C   UNL     1       4.526  -1.378   0.117  1.00  0.00     0.075 A 
HETATM    6  C   UNL     1       5.311  -0.209   0.096  1.00  0.00    -0.029 A 
HETATM    7  C   UNL     1       4.711   1.034   0.346  1.00  0.00     0.010 A 
HETATM    8  C   UNL     1       6.776  -0.270  -0.242  1.00  0.00     0.051 C 
HETATM    9  C   UNL     1       3.345   1.124   0.605  1.00  0.00     0.007 A 
HETATM   10  C   UNL     1       2.552  -0.027   0.604  1.00  0.00    -0.059 A 
HETATM   11  C   UNL     1       1.072   0.063   0.832  1.00  0.00     0.048 C 
HETATM   12  C   UNL     1       3.153  -1.276   0.369  1.00  0.00     0.044 A 
ENDBRANCH   4   5
ENDBRANCH   3   4
ENDBRANCH   2   3
BRANCH   2  13
HETATM   13  O   UNL     1       6.439  -5.038   0.500  1.00  0.00    -0.392 OA
HETATM   14  H   UNL     1       6.144  -4.553   1.291  1.00  0.00     0.210 HD
ENDBRANCH   2  13
ENDBRANCH   1   2
BRANCH   1  15
HETATM   15  N   UNL     1       3.740  -6.417  -1.649  1.00  0.00    -0.330 N 
HETATM   16  C   UNL     1       3.867  -6.815  -2.964  1.00  0.00     0.108 A 
HETATM   17  N   UNL     1       2.682  -6.885  -3.546  1.00  0.00    -0.342 N 
HETATM   18  C   UNL     1       1.765  -6.594  -2.573  1.00  0.00     0.060 A 
ATOM     19  HN  UNL     1       2.490  -7.110  -4.522  1.00  0.00     0.167 HD
HETATM   20  C   UNL     1       0.364  -6.588  -2.642  1.00  0.00     0.032 A 
HETATM   21  C   UNL     1       2.394  -6.291  -1.371  1.00  0.00     0.062 A 
HETATM   22  C   UNL     1      -0.367  -6.269  -1.492  1.00  0.00     0.002 A 
HETATM   23  C   UNL     1       0.284  -5.957  -0.298  1.00  0.00     0.002 A 
HETATM   24  C   UNL     1       1.679  -5.963  -0.211  1.00  0.00     0.032 A 
BRANCH  16  25
HETATM   25  C   UNL     1       5.144  -7.135  -3.662  1.00  0.00     0.240 C 
BRANCH  25  26
HETATM   26  O   UNL     1       5.280  -6.202  -4.727  1.00  0.00    -0.393 OA
HETATM   27  H   UNL     1       4.410  -6.197  -5.174  1.00  0.00     0.209 HD
ENDBRANCH  25  26
ENDBRANCH  16  25
ENDBRANCH   1  15
TORSDOF 8
