REMARK  8 active torsions:
REMARK  status: ('A' for Active; 'I' for Inactive)
REMARK    1  A    between atoms: C_2  and  N_3 
REMARK    2  A    between atoms: C_2  and  C_12 
REMARK    3  A    between atoms: N_3  and  C_4 
REMARK    4  A    between atoms: C_4  and  C_5 
REMARK    5  A    between atoms: C_5  and  C_6 
REMARK    6  A    between atoms: C_6  and  N_7 
REMARK    7  A    between atoms: N_7  and  S_8 
REMARK    8  A    between atoms: C_12  and  N_14 
ROOT
HETATM    1  C   UNL     1       0.886   0.081  -0.077  1.00  0.00     0.045 C 
HETATM    2  C   UNL     1       2.414  -0.091  -0.092  1.00  0.00     0.240 C 
ENDROOT
BRANCH   2   3
HETATM    3  N   UNL     1       2.780  -1.443   0.405  1.00  0.00     0.089 N 
HETATM    4  H   UNL     1       2.395  -1.584   1.339  1.00  0.00     0.316 HD
BRANCH   3   5
HETATM    5  C   UNL     1       2.348  -2.519  -0.480  1.00  0.00     0.271 C 
BRANCH   5   6
HETATM    6  C   UNL     1       2.783  -3.903   0.003  1.00  0.00     0.045 C 
BRANCH   6   7
HETATM    7  C   UNL     1       2.193  -4.918  -0.971  1.00  0.00     0.105 C 
BRANCH   7   8
HETATM    8  N   UNL     1       2.610  -6.289  -0.646  1.00  0.00    -0.220 NA
HETATM    9  H   UNL     1       2.465  -6.568   0.328  1.00  0.00     0.139 HD
BRANCH   8  10
HETATM   10  S   UNL     1       2.009  -7.492  -1.665  1.00  0.00     0.205 S 
HETATM   11  O   UNL     1       2.426  -8.751  -1.091  1.00  0.00    -0.212 OA
HETATM   12  O   UNL     1       0.612  -7.204  -1.913  1.00  0.00    -0.212 OA
HETATM   13  C   UNL     1       2.932  -7.211  -3.168  1.00  0.00     0.179 C 
ENDBRANCH   8  10
ENDBRANCH   7   8
ENDBRANCH   6   7
ENDBRANCH   5   6
ENDBRANCH   3   5
ENDBRANCH   2   3
BRANCH   2  14
HETATM   14  C   UNL     1       3.051   0.292  -1.472  1.00  0.00     0.136 C 
HETATM   15  C   UNL     1       2.706   1.719  -1.915  1.00  0.00     0.036 C 
BRANCH  14  16
HETATM   16  N   UNL     1       4.506   0.112  -1.515  1.00  0.00    -0.297 N 
HETATM   17  C   UNL     1       5.413   0.300  -0.508  1.00  0.00     0.118 A 
HETATM   18  C   UNL     1       6.654   0.010  -1.032  1.00  0.00    -0.028 A 
HETATM   19  C   UNL     1       7.960   0.017  -0.340  1.00  0.00     0.051 C 
HETATM   20  C   UNL     1       6.388  -0.303  -2.382  1.00  0.00     0.115 A 
HETATM   21  N   UNL     1       5.089  -0.236  -2.684  1.00  0.00    -0.309 N 
ATOM     22  HN  UNL     1       4.642  -0.407  -3.585  1.00  0.00     0.186 HD
ENDBRANCH  14  16
ENDBRANCH   2  14
TORSDOF 8
