REMARK  4 active torsions:
REMARK  status: ('A' for Active; 'I' for Inactive)
REMARK    1  A    between atoms: C_2  and  C_3 
REMARK       I    between atoms: N_6  and  C_10 
REMARK       I    between atoms: C_10  and  N_12 
REMARK    2  A    between atoms: N_12  and  C_13 
REMARK    3  A    between atoms: C_13  and  C_14 
REMARK    4  A    between atoms: C_14  and  N_15 
ROOT
HETATM    1  C   UNL     1       3.053   0.672   1.155  1.00  0.00     0.073 C 
HETATM    2  C   UNL     1       2.372   0.306   2.483  1.00  0.00     0.047 C 
HETATM    3  C   UNL     1       2.957   2.207   0.953  1.00  0.00     0.165 C 
HETATM    4  N   UNL     1       3.819   2.649  -0.147  1.00  0.00    -0.329 N 
HETATM    5  C   UNL     1       5.213   2.235   0.027  1.00  0.00     0.153 C 
HETATM    6  C   UNL     1       5.306   0.725   0.265  1.00  0.00     0.189 C 
HETATM    7  O   UNL     1       4.442   0.291   1.330  1.00  0.00    -0.377 OA
HETATM    8  C   UNL     1       3.428   3.185  -1.354  1.00  0.00     0.318 C 
HETATM    9  O   UNL     1       4.206   3.371  -2.286  1.00  0.00    -0.247 OA
HETATM   10  N   UNL     1       2.093   3.493  -1.462  1.00  0.00    -0.341 N 
HETATM   11  H   UNL     1       1.689   3.837  -0.605  1.00  0.00     0.164 HD
ENDROOT
BRANCH  10  12
HETATM   12  C   UNL     1       1.621   4.125  -2.687  1.00  0.00     0.144 C 
BRANCH  12  13
HETATM   13  C   UNL     1       0.107   4.292  -2.715  1.00  0.00     0.149 C 
BRANCH  13  14
HETATM   14  N   UNL     1      -0.355   4.930  -3.929  1.00  0.00    -0.350 N 
HETATM   15  C   UNL     1      -0.499   6.273  -4.137  1.00  0.00     0.108 A 
HETATM   16  C   UNL     1      -0.971   6.381  -5.425  1.00  0.00     0.106 A 
HETATM   17  N   UNL     1      -1.123   5.144  -5.994  1.00  0.00    -0.361 N 
HETATM   18  C   UNL     1      -0.746   4.289  -5.071  1.00  0.00     0.182 A 
ATOM     19  HN  UNL     1      -1.458   4.932  -6.934  1.00  0.00     0.166 HD
ENDBRANCH  13  14
ENDBRANCH  12  13
ENDBRANCH  10  12
BRANCH   1  20
HETATM   20  C   UNL     1       2.433  -0.136  -0.014  1.00  0.00     0.035 C 
HETATM   21  C   UNL     1       0.939   0.058  -0.236  1.00  0.00     0.008 C 
ENDBRANCH   1  20
TORSDOF 4
