REMARK  4 active torsions:
REMARK  status: ('A' for Active; 'I' for Inactive)
REMARK    1  A    between atoms: C_7  and  C_8 
REMARK    2  A    between atoms: C_8  and  C_9 
REMARK    3  A    between atoms: C_9  and  N_10 
REMARK       I    between atoms: N_10  and  C_11 
REMARK       I    between atoms: C_11  and  N_13 
REMARK    4  A    between atoms: N_13  and  C_14 
ROOT
HETATM    1  N   UNL     1       0.608  -4.004   0.051  1.00  0.00    -0.343 N 
HETATM    2  C   UNL     1      -0.748  -4.116   0.195  1.00  0.00     0.316 C 
HETATM    3  O   UNL     1      -1.499  -3.154   0.289  1.00  0.00    -0.247 OA
HETATM    4  N   UNL     1      -1.165  -5.426   0.224  1.00  0.00    -0.339 N 
HETATM    5  H   UNL     1       1.186  -4.787   0.317  1.00  0.00     0.164 HD
HETATM    6  H   UNL     1      -0.546  -6.086  -0.226  1.00  0.00     0.164 HD
ENDROOT
BRANCH   1   7
HETATM    7  C   UNL     1       1.244  -2.693   0.007  1.00  0.00     0.132 C 
BRANCH   7   8
HETATM    8  C   UNL     1       1.430  -2.047   1.385  1.00  0.00     0.096 C 
BRANCH   8   9
HETATM    9  C   UNL     1       2.509  -2.718   2.177  1.00  0.00     0.084 A 
HETATM   10  N   UNL     1       2.367  -3.180   3.466  1.00  0.00    -0.350 N 
HETATM   11  C   UNL     1       1.177  -3.134   4.281  1.00  0.00     0.156 C 
HETATM   12  C   UNL     1       3.574  -3.686   3.865  1.00  0.00     0.108 A 
HETATM   13  C   UNL     1       4.412  -3.504   2.793  1.00  0.00     0.106 A 
HETATM   14  N   UNL     1       3.745  -2.913   1.755  1.00  0.00    -0.354 N 
ATOM     15  HN  UNL     1       4.126  -2.672   0.840  1.00  0.00     0.166 HD
ENDBRANCH   8   9
ENDBRANCH   7   8
ENDBRANCH   1   7
BRANCH   4  16
HETATM   16  C   UNL     1      -2.592  -5.734   0.232  1.00  0.00     0.086 C 
HETATM   17  C   UNL     1      -2.885  -7.045   0.973  1.00  0.00     0.025 C 
HETATM   18  C   UNL     1      -2.567  -8.295   0.155  1.00  0.00     0.002 C 
HETATM   19  C   UNL     1      -3.220  -8.253  -1.221  1.00  0.00     0.000 C 
HETATM   20  C   UNL     1      -2.828  -6.990  -1.980  1.00  0.00     0.002 C 
HETATM   21  C   UNL     1      -3.180  -5.733  -1.187  1.00  0.00     0.025 C 
ENDBRANCH   4  16
TORSDOF 4
