REMARK  7 active torsions:
REMARK  status: ('A' for Active; 'I' for Inactive)
REMARK    1  A    between atoms: O_2  and  C_3 
REMARK    2  A    between atoms: C_3  and  C_4 
REMARK    3  A    between atoms: C_4  and  N_5 
REMARK    4  A    between atoms: C_8  and  C_13 
REMARK       I    between atoms: C_13  and  N_15 
REMARK    5  A    between atoms: N_15  and  C_16 
REMARK    6  A    between atoms: C_16  and  C_17 
REMARK    7  A    between atoms: C_17  and  N_18 
ROOT
HETATM    1  C   UNL     1       6.140   2.059  -5.251  1.00  0.00     0.269 C 
HETATM    2  O   UNL     1       6.642   1.860  -6.346  1.00  0.00    -0.266 OA
HETATM    3  N   UNL     1       5.922   3.310  -4.699  1.00  0.00    -0.354 N 
HETATM    4  H   UNL     1       5.444   3.399  -3.813  1.00  0.00     0.162 HD
ENDROOT
BRANCH   1   5
HETATM    5  C   UNL     1       5.668   0.880  -4.399  1.00  0.00     0.116 A 
HETATM    6  N   UNL     1       6.444  -0.152  -4.275  1.00  0.00    -0.290 N 
HETATM    7  N   UNL     1       5.984  -1.208  -3.506  1.00  0.00    -0.255 N 
ATOM      8  HN  UNL     1       7.358  -0.185  -4.727  1.00  0.00     0.187 HD
HETATM    9  C   UNL     1       4.776  -1.196  -2.821  1.00  0.00     0.262 A 
HETATM   10  C   UNL     1       3.932   0.003  -3.008  1.00  0.00     0.078 A 
HETATM   11  O   UNL     1       4.361  -2.095  -2.097  1.00  0.00    -0.267 OA
HETATM   12  C   UNL     1       4.334   1.012  -3.779  1.00  0.00     0.042 A 
BRANCH   7  13
HETATM   13  C   UNL     1       6.874  -2.360  -3.375  1.00  0.00     0.178 C 
BRANCH  13  14
HETATM   14  C   UNL     1       6.310  -3.638  -4.003  1.00  0.00     0.189 C 
BRANCH  14  15
HETATM   15  O   UNL     1       7.228  -4.716  -3.793  1.00  0.00    -0.394 OA
HETATM   16  C   UNL     1       6.708  -5.946  -4.283  1.00  0.00     0.201 C 
ENDBRANCH  14  15
ENDBRANCH  13  14
ENDBRANCH   7  13
ENDBRANCH   1   5
BRANCH   3  17
HETATM   17  C   UNL     1       6.215   4.511  -5.461  1.00  0.00     0.153 C 
BRANCH  17  18
HETATM   18  C   UNL     1       6.378   5.740  -4.548  1.00  0.00     0.292 C 
BRANCH  18  19
HETATM   19  N   UNL     1       6.792   6.973  -5.242  1.00  0.00     0.095 N 
HETATM   20  C   UNL     1       8.102   6.846  -5.926  1.00  0.00     0.303 C 
HETATM   21  C   UNL     1       9.281   6.690  -4.943  1.00  0.00     0.146 C 
HETATM   22  C   UNL     1      10.598   6.550  -5.691  1.00  0.00     0.041 C 
HETATM   23  O   UNL     1       9.360   7.843  -4.088  1.00  0.00    -0.378 OA
HETATM   24  C   UNL     1       8.138   8.027  -3.351  1.00  0.00     0.146 C 
HETATM   25  C   UNL     1       8.283   9.305  -2.535  1.00  0.00     0.041 C 
HETATM   26  C   UNL     1       6.910   8.111  -4.293  1.00  0.00     0.303 C 
ENDBRANCH  18  19
ENDBRANCH  17  18
ENDBRANCH   3  17
TORSDOF 7
