REMARK  4 active torsions:
REMARK  status: ('A' for Active; 'I' for Inactive)
REMARK    1  A    between atoms: C_2  and  C_3 
REMARK    2  A    between atoms: C_2  and  N_11 
REMARK    3  A    between atoms: C_3  and  N_4 
REMARK    4  A    between atoms: N_11  and  C_12 
ROOT
HETATM    1  C   UNL     1       0.953  -0.056  -0.149  1.00  0.00     0.044 C 
HETATM    2  C   UNL     1       2.470  -0.081   0.094  1.00  0.00     0.236 C 
ENDROOT
BRANCH   2   3
HETATM    3  C   UNL     1       2.689  -0.168   1.626  1.00  0.00     0.183 C 
BRANCH   3   4
HETATM    4  N   UNL     1       4.051  -0.043   2.109  1.00  0.00    -0.301 N 
HETATM    5  C   UNL     1       4.920   0.988   1.877  1.00  0.00     0.118 A 
HETATM    6  C   UNL     1       5.967   0.830   2.764  1.00  0.00    -0.028 A 
HETATM    7  C   UNL     1       7.152   1.692   2.957  1.00  0.00     0.051 C 
HETATM    8  C   UNL     1       5.633  -0.341   3.479  1.00  0.00     0.115 A 
HETATM    9  N   UNL     1       4.467  -0.864   3.097  1.00  0.00    -0.310 N 
ATOM     10  HN  UNL     1       3.998  -1.692   3.466  1.00  0.00     0.186 HD
ENDBRANCH   3   4
ENDBRANCH   2   3
BRANCH   2  11
HETATM   11  N   UNL     1       3.119  -1.202  -0.606  1.00  0.00     0.094 N 
HETATM   12  H   UNL     1       2.821  -2.092  -0.207  1.00  0.00     0.316 HD
BRANCH  11  13
HETATM   13  C   UNL     1       2.972  -1.235  -2.057  1.00  0.00     0.221 C 
HETATM   14  C   UNL     1       3.692  -2.456  -2.655  1.00  0.00     0.035 C 
HETATM   15  C   UNL     1       4.239  -2.009  -4.012  1.00  0.00     0.002 C 
HETATM   16  C   UNL     1       3.723  -0.592  -4.223  1.00  0.00     0.002 C 
HETATM   17  C   UNL     1       3.575  -0.050  -2.808  1.00  0.00     0.035 C 
ENDBRANCH  11  13
ENDBRANCH   2  11
TORSDOF 4
