REMARK  5 active torsions:
REMARK  status: ('A' for Active; 'I' for Inactive)
REMARK    1  A    between atoms: C_2  and  C_3 
REMARK    2  A    between atoms: C_3  and  N_4 
REMARK       I    between atoms: N_4  and  C_5 
REMARK       I    between atoms: C_5  and  N_6 
REMARK    3  A    between atoms: N_9  and  C_10 
REMARK    4  A    between atoms: C_10  and  C_11 
REMARK    5  A    between atoms: C_11  and  N_12 
ROOT
HETATM    1  N   UNL     1       4.706  -1.621  -0.012  1.00  0.00    -0.227 N 
HETATM    2  C   UNL     1       5.302  -2.829   0.230  1.00  0.00     0.669 C 
HETATM    3  N   UNL     1       4.724  -3.963   0.398  1.00  0.00    -0.231 N 
ATOM      4  HN  UNL     1       5.295  -4.786   0.589  1.00  0.00     0.177 HD
HETATM    5  C   UNL     1       3.287  -4.108   0.324  1.00  0.00     0.165 C 
HETATM    6  N   UNL     1       6.663  -2.764   0.295  1.00  0.00    -0.225 N 
HETATM    7  H   UNL     1       3.694  -1.652  -0.046  1.00  0.00     0.177 HD
HETATM    8  H   UNL     1       7.076  -1.866   0.103  1.00  0.00     0.177 HD
ENDROOT
BRANCH   6   9
HETATM    9  C   UNL     1       7.459  -3.912  -0.127  1.00  0.00     0.159 C 
BRANCH   9  10
HETATM   10  C   UNL     1       8.941  -3.637   0.037  1.00  0.00     0.168 C 
BRANCH  10  11
HETATM   11  N   UNL     1       9.729  -4.779  -0.382  1.00  0.00    -0.302 N 
HETATM   12  C   UNL     1      10.119  -5.830   0.394  1.00  0.00     0.111 A 
HETATM   13  C   UNL     1      10.818  -6.672  -0.437  1.00  0.00     0.037 A 
HETATM   14  C   UNL     1      10.793  -6.038  -1.693  1.00  0.00     0.108 A 
HETATM   15  N   UNL     1      10.128  -4.880  -1.664  1.00  0.00    -0.310 N 
ATOM     16  HN  UNL     1       9.962  -4.228  -2.430  1.00  0.00     0.186 HD
ENDBRANCH  10  11
ENDBRANCH   9  10
ENDBRANCH   6   9
BRANCH   1  17
HETATM   17  C   UNL     1       5.316  -0.502  -0.713  1.00  0.00     0.137 C 
BRANCH  17  18
HETATM   18  C   UNL     1       4.295   0.380  -1.426  1.00  0.00     0.016 C 
HETATM   19  C   UNL     1       3.541  -0.359  -2.521  1.00  0.00     0.006 C 
ENDBRANCH  17  18
ENDBRANCH   1  17
TORSDOF 5
