REMARK  6 active torsions:
REMARK  status: ('A' for Active; 'I' for Inactive)
REMARK    1  A    between atoms: O_2  and  C_3 
REMARK    2  A    between atoms: C_3  and  C_4 
REMARK    3  A    between atoms: C_4  and  N_5 
REMARK    4  A    between atoms: C_6  and  S_7 
REMARK    5  A    between atoms: S_7  and  C_8 
REMARK    6  A    between atoms: C_8  and  C_9 
REMARK       I    between atoms: C_9  and  N_11 
ROOT
HETATM    1  N   UNL     1       4.733  -1.055  -2.488  1.00  0.00    -0.324 N 
HETATM    2  C   UNL     1       5.219  -0.279  -3.513  1.00  0.00     0.148 A 
HETATM    3  N   UNL     1       5.500  -0.990  -4.581  1.00  0.00    -0.335 N 
ATOM      4  HN  UNL     1       5.877  -0.654  -5.467  1.00  0.00     0.168 HD
HETATM    5  C   UNL     1       5.178  -2.281  -4.249  1.00  0.00     0.061 A 
HETATM    6  C   UNL     1       5.280  -3.452  -5.015  1.00  0.00     0.032 A 
HETATM    7  C   UNL     1       4.881  -4.671  -4.450  1.00  0.00     0.002 A 
HETATM    8  C   UNL     1       4.379  -4.723  -3.150  1.00  0.00     0.002 A 
HETATM    9  C   UNL     1       4.261  -3.566  -2.374  1.00  0.00     0.032 A 
HETATM   10  C   UNL     1       4.681  -2.357  -2.950  1.00  0.00     0.063 A 
ENDROOT
BRANCH   2  11
HETATM   11  S   UNL     1       5.450   1.436  -3.397  1.00  0.00    -0.084 SA
BRANCH  11  12
HETATM   12  C   UNL     1       5.372   1.918  -5.155  1.00  0.00     0.185 C 
BRANCH  12  13
HETATM   13  C   UNL     1       3.995   1.662  -5.762  1.00  0.00     0.237 C 
HETATM   14  O   UNL     1       2.968   1.548  -5.084  1.00  0.00    -0.272 OA
HETATM   15  N   UNL     1       3.927   1.656  -7.152  1.00  0.00    -0.268 N 
HETATM   16  C   UNL     1       2.699   1.289  -7.827  1.00  0.00     0.156 A 
HETATM   17  C   UNL     1       4.779   2.330  -8.040  1.00  0.00     0.325 A 
HETATM   18  C   UNL     1       2.855   1.794  -9.252  1.00  0.00     0.145 A 
HETATM   19  N   UNL     1       4.165   2.373  -9.280  1.00  0.00    -0.341 N 
HETATM   20  H   UNL     1       4.588   2.871 -10.053  1.00  0.00     0.164 HD
HETATM   21  O   UNL     1       5.876   2.811  -7.816  1.00  0.00    -0.247 OA
ENDBRANCH  12  13
ENDBRANCH  11  12
ENDBRANCH   2  11
BRANCH   1  22
HETATM   22  C   UNL     1       4.278  -0.638  -1.176  1.00  0.00     0.157 C 
BRANCH  22  23
HETATM   23  C   UNL     1       5.126  -1.185  -0.029  1.00  0.00     0.187 C 
BRANCH  23  24
HETATM   24  O   UNL     1       4.484  -0.866   1.209  1.00  0.00    -0.394 OA
HETATM   25  C   UNL     1       5.173  -1.428   2.320  1.00  0.00     0.201 C 
ENDBRANCH  23  24
ENDBRANCH  22  23
ENDBRANCH   1  22
TORSDOF 6
