REMARK  7 active torsions:
REMARK  status: ('A' for Active; 'I' for Inactive)
REMARK    1  A    between atoms: C_2  and  C_3 
REMARK    2  A    between atoms: C_3  and  C_4 
REMARK    3  A    between atoms: N_8  and  C_9 
REMARK    4  A    between atoms: C_9  and  C_10 
REMARK    5  A    between atoms: C_10  and  O_11 
REMARK    6  A    between atoms: C_10  and  C_12 
REMARK    7  A    between atoms: C_12  and  N_13 
ROOT
HETATM    1  C   UNL     1       8.883   0.364   0.117  1.00  0.00     0.155 C 
ENDROOT
BRANCH   1   2
HETATM    2  C   UNL     1       7.635   1.280   0.180  1.00  0.00     0.170 C 
BRANCH   2   3
HETATM    3  N   UNL     1       6.425   0.508  -0.074  1.00  0.00    -0.266 N 
HETATM    4  C   UNL     1       5.995  -0.510   0.730  1.00  0.00     0.325 C 
HETATM    5  N   UNL     1       4.976  -1.175   0.087  1.00  0.00    -0.329 N 
HETATM    6  O   UNL     1       6.442  -0.822   1.815  1.00  0.00    -0.247 OA
HETATM    7  C   UNL     1       4.861  -0.758  -1.292  1.00  0.00     0.179 C 
HETATM    8  H   UNL     1       4.680  -2.072   0.447  1.00  0.00     0.165 HD
HETATM    9  C   UNL     1       5.729   0.508  -1.254  1.00  0.00     0.250 C 
HETATM   10  O   UNL     1       5.848   1.321  -2.160  1.00  0.00    -0.271 OA
BRANCH   7  11
HETATM   11  C   UNL     1       3.409  -0.607  -1.725  1.00  0.00     0.034 C 
BRANCH  11  12
HETATM   12  C   UNL     1       3.254  -0.169  -3.182  1.00  0.00    -0.002 C 
HETATM   13  C   UNL     1       1.792  -0.144  -3.604  1.00  0.00     0.005 C 
ENDBRANCH  11  12
ENDBRANCH   7  11
ENDBRANCH   2   3
ENDBRANCH   1   2
BRANCH   1  14
HETATM   14  O   UNL     1       8.922  -0.215  -1.196  1.00  0.00    -0.392 OA
HETATM   15  H   UNL     1       9.827  -0.179  -1.553  1.00  0.00     0.210 HD
ENDBRANCH   1  14
BRANCH   1  16
HETATM   16  C   UNL     1      10.183   1.118   0.446  1.00  0.00     0.163 C 
BRANCH  16  17
HETATM   17  N   UNL     1      11.339   0.232   0.529  1.00  0.00    -0.339 N 
HETATM   18  C   UNL     1      11.462  -0.811   1.410  1.00  0.00     0.184 A 
HETATM   19  N   UNL     1      12.591  -1.459   1.249  1.00  0.00    -0.350 N 
HETATM   20  C   UNL     1      13.241  -0.800   0.237  1.00  0.00     0.060 A 
ATOM     21  HN  UNL     1      12.916  -2.277   1.765  1.00  0.00     0.166 HD
HETATM   22  C   UNL     1      14.497  -1.066  -0.329  1.00  0.00     0.039 A 
HETATM   23  C   UNL     1      12.484   0.272  -0.232  1.00  0.00     0.062 A 
HETATM   24  C   UNL     1      14.993  -0.240  -1.356  1.00  0.00    -0.054 A 
HETATM   25  C   UNL     1      16.355  -0.549  -1.922  1.00  0.00     0.049 C 
HETATM   26  C   UNL     1      14.220   0.846  -1.812  1.00  0.00    -0.054 A 
HETATM   27  C   UNL     1      14.704   1.793  -2.884  1.00  0.00     0.049 C 
HETATM   28  C   UNL     1      12.943   1.108  -1.255  1.00  0.00     0.039 A 
ENDBRANCH  16  17
ENDBRANCH   1  16
TORSDOF 7
