REMARK  6 active torsions:
REMARK  status: ('A' for Active; 'I' for Inactive)
REMARK    1  A    between atoms: N_1  and  C_12 
REMARK    2  A    between atoms: N_2  and  C_14 
REMARK    3  A    between atoms: C_4  and  C_13 
REMARK    4  A    between atoms: N_6  and  C_15 
REMARK    5  A    between atoms: C_12  and  C_13 
REMARK    6  A    between atoms: C_15  and  C_16 
ROOT
HETATM    1  C   UNL     1      -1.191   2.035   0.080  1.00  0.00     0.221 C 
ENDROOT
BRANCH   1   2
HETATM    2  N   UNL     1      -0.226   2.219  -1.009  1.00  0.00    -0.256 N 
HETATM    3  C   UNL     1       0.128   1.093  -1.732  1.00  0.00     0.334 C 
HETATM    4  N   UNL     1       0.791   1.312  -2.926  1.00  0.00    -0.279 N 
HETATM    5  O   UNL     1      -0.125  -0.043  -1.344  1.00  0.00    -0.246 OA
HETATM    6  C   UNL     1       1.473   2.487  -3.150  1.00  0.00     0.146 C 
HETATM    7  C   UNL     1       1.439   3.471  -2.252  1.00  0.00     0.200 C 
HETATM    8  C   UNL     1       0.534   3.380  -1.074  1.00  0.00     0.292 C 
HETATM    9  F   UNL     1       2.189   4.580  -2.381  1.00  0.00    -0.199 F 
HETATM   10  O   UNL     1       0.529   4.265  -0.228  1.00  0.00    -0.264 OA
BRANCH   4  11
HETATM   11  C   UNL     1       0.658   0.278  -3.940  1.00  0.00     0.232 C 
HETATM   12  O   UNL     1       1.744   0.280  -4.874  1.00  0.00    -0.366 OA
HETATM   13  C   UNL     1       1.227  -0.162  -6.142  1.00  0.00     0.170 C 
HETATM   14  C   UNL     1      -0.274  -0.345  -6.001  1.00  0.00     0.031 C 
HETATM   15  C   UNL     1      -0.596   0.479  -4.783  1.00  0.00     0.056 C 
ENDBRANCH   4  11
ENDBRANCH   1   2
BRANCH   1  16
HETATM   16  C   UNL     1      -2.674   2.086  -0.369  1.00  0.00     0.179 C 
HETATM   17  O   UNL     1      -3.196   3.161  -0.670  1.00  0.00    -0.290 OA
BRANCH  16  18
HETATM   18  C   UNL     1      -3.447   0.824  -0.420  1.00  0.00     0.036 C 
HETATM   19  C   UNL     1      -4.779   0.621  -0.039  1.00  0.00     0.022 C 
HETATM   20  N   UNL     1      -5.027  -0.750  -0.070  1.00  0.00    -0.349 N 
HETATM   21  C   UNL     1      -5.801   1.630   0.369  1.00  0.00     0.069 C 
HETATM   22  C   UNL     1      -3.979  -1.378  -0.706  1.00  0.00     0.009 C 
HETATM   23  C   UNL     1      -3.030  -0.418  -0.958  1.00  0.00     0.042 C 
HETATM   24  C   UNL     1      -3.929  -2.829  -1.032  1.00  0.00     0.068 C 
BRANCH  20  25
HETATM   25  C   UNL     1      -6.225  -1.450   0.404  1.00  0.00     0.174 C 
BRANCH  25  26
HETATM   26  C   UNL     1      -6.135  -1.905   1.835  1.00  0.00     0.001 A 
HETATM   27  S   UNL     1      -7.440  -2.835   2.467  1.00  0.00    -0.105 SA
HETATM   28  C   UNL     1      -6.778  -2.829   4.040  1.00  0.00     0.050 A 
HETATM   29  C   UNL     1      -5.558  -2.197   4.082  1.00  0.00     0.008 A 
HETATM   30  C   UNL     1      -5.165  -1.703   2.801  1.00  0.00     0.017 A 
ENDBRANCH  25  26
ENDBRANCH  20  25
ENDBRANCH  16  18
ENDBRANCH   1  16
TORSDOF 6
