REMARK  6 active torsions:
REMARK  status: ('A' for Active; 'I' for Inactive)
REMARK    1  A    between atoms: O_2  and  C_3 
REMARK    2  A    between atoms: C_3  and  C_4 
REMARK    3  A    between atoms: C_4  and  N_5 
REMARK    4  A    between atoms: C_8  and  C_13 
REMARK       I    between atoms: C_13  and  N_15 
REMARK    5  A    between atoms: N_15  and  C_16 
REMARK    6  A    between atoms: N_19  and  C_22 
ROOT
HETATM    1  C   UNL     1       6.459  -2.298  -5.292  1.00  0.00     0.269 C 
HETATM    2  O   UNL     1       7.008  -3.146  -5.984  1.00  0.00    -0.266 OA
HETATM    3  N   UNL     1       6.152  -1.022  -5.700  1.00  0.00    -0.351 N 
HETATM    4  H   UNL     1       5.573  -0.476  -5.067  1.00  0.00     0.163 HD
ENDROOT
BRANCH   1   5
HETATM    5  C   UNL     1       6.069  -2.628  -3.844  1.00  0.00     0.116 C 
HETATM    6  N   UNL     1       5.379  -1.763  -3.159  1.00  0.00    -0.290 N 
HETATM    7  N   UNL     1       5.086  -2.100  -1.844  1.00  0.00    -0.255 N 
ATOM      8  HN  UNL     1       5.069  -0.881  -3.568  1.00  0.00     0.187 HD
HETATM    9  C   UNL     1       5.581  -3.230  -1.200  1.00  0.00     0.262 C 
HETATM   10  C   UNL     1       6.304  -4.196  -2.052  1.00  0.00     0.078 C 
HETATM   11  O   UNL     1       5.436  -3.483  -0.008  1.00  0.00    -0.267 OA
HETATM   12  C   UNL     1       6.537  -3.931  -3.335  1.00  0.00     0.042 C 
BRANCH   7  13
HETATM   13  C   UNL     1       4.238  -1.177  -1.097  1.00  0.00     0.178 C 
BRANCH  13  14
HETATM   14  C   UNL     1       5.017  -0.069  -0.394  1.00  0.00     0.189 C 
BRANCH  14  15
HETATM   15  O   UNL     1       4.093   0.760   0.317  1.00  0.00    -0.394 OA
HETATM   16  C   UNL     1       4.749   1.822   0.997  1.00  0.00     0.201 C 
ENDBRANCH  14  15
ENDBRANCH  13  14
ENDBRANCH   7  13
ENDBRANCH   1   5
BRANCH   3  17
HETATM   17  C   UNL     1       6.395  -0.572  -7.067  1.00  0.00     0.088 C 
HETATM   18  C   UNL     1       6.551   0.950  -7.134  1.00  0.00     0.055 C 
HETATM   19  C   UNL     1       5.202   1.670  -7.044  1.00  0.00     0.275 C 
HETATM   20  N   UNL     1       4.214   1.206  -8.034  1.00  0.00     0.092 N 
HETATM   21  C   UNL     1       4.015  -0.244  -7.854  1.00  0.00     0.275 C 
HETATM   22  C   UNL     1       5.299  -1.057  -8.023  1.00  0.00     0.055 C 
BRANCH  20  23
HETATM   23  C   UNL     1       4.514   1.610  -9.431  1.00  0.00     0.215 C 
HETATM   24  C   UNL     1       3.437   1.131 -10.420  1.00  0.00     0.042 C 
HETATM   25  C   UNL     1       4.618   3.139  -9.581  1.00  0.00     0.042 C 
ENDBRANCH  20  23
ENDBRANCH   3  17
TORSDOF 6
