REMARK  2 active torsions:
REMARK  status: ('A' for Active; 'I' for Inactive)
REMARK    1  A    between atoms: C_6  and  N_7 
REMARK       I    between atoms: N_7  and  C_8 
REMARK       I    between atoms: C_8  and  N_10 
REMARK    2  A    between atoms: N_10  and  C_11 
ROOT
HETATM    1  N   UNL     1       5.282  -2.528   0.171  1.00  0.00    -0.295 N 
HETATM    2  C   UNL     1       4.400  -3.533  -0.114  1.00  0.00     0.322 C 
HETATM    3  O   UNL     1       3.196  -3.319  -0.019  1.00  0.00    -0.247 OA
HETATM    4  N   UNL     1       4.935  -4.699  -0.537  1.00  0.00    -0.334 N 
HETATM    5  H   UNL     1       4.811  -1.660   0.382  1.00  0.00     0.172 HD
HETATM    6  H   UNL     1       5.942  -4.724  -0.376  1.00  0.00     0.165 HD
ENDROOT
BRANCH   1   7
HETATM    7  C   UNL     1       6.672  -2.564   0.308  1.00  0.00     0.109 A 
HETATM    8  C   UNL     1       7.314  -1.378   0.640  1.00  0.00     0.049 A 
HETATM    9  C   UNL     1       8.693  -1.386   0.839  1.00  0.00     0.006 A 
HETATM   10  C   UNL     1       9.392  -2.579   0.705  1.00  0.00     0.025 A 
HETATM   11  C   UNL     1       8.687  -3.729   0.371  1.00  0.00     0.007 A 
HETATM   12  C   UNL     1       9.400  -5.037   0.201  1.00  0.00     0.068 C 
HETATM   13  N   UNL     1       7.343  -3.734   0.162  1.00  0.00    -0.346 N 
ATOM     14  HN  UNL     1       6.855  -4.591  -0.097  1.00  0.00     0.167 HD
ENDBRANCH   1   7
BRANCH   4  15
HETATM   15  C   UNL     1       4.289  -6.017  -0.678  1.00  0.00     0.035 C 
HETATM   16  C   UNL     1       4.276  -6.677   0.712  1.00  0.00     0.039 C 
HETATM   17  C   UNL     1       5.155  -6.802  -1.686  1.00  0.00     0.057 C 
HETATM   18  C   UNL     1       4.951  -6.211  -3.083  1.00  0.00     0.170 C 
HETATM   19  O   UNL     1       3.596  -6.394  -3.487  1.00  0.00    -0.391 OA
HETATM   20  C   UNL     1       2.695  -5.651  -2.665  1.00  0.00     0.170 C 
HETATM   21  C   UNL     1       2.833  -6.034  -1.200  1.00  0.00     0.057 C 
ENDBRANCH   4  15
TORSDOF 2
