REMARK  4 active torsions:
REMARK  status: ('A' for Active; 'I' for Inactive)
REMARK    1  A    between atoms: N_11  and  C_12 
REMARK    2  A    between atoms: C_12  and  C_13 
REMARK    3  A    between atoms: C_13  and  O_14 
REMARK    4  A    between atoms: C_13  and  C_15 
ROOT
HETATM    1  C   UNL     1       1.020   0.019  -0.112  1.00  0.00     0.164 C 
HETATM    2  N   UNL     1       2.468  -0.057  -0.088  1.00  0.00    -0.269 N 
HETATM    3  C   UNL     1       3.072  -1.331  -0.085  1.00  0.00     0.332 A 
HETATM    4  O   UNL     1       2.395  -2.363  -0.107  1.00  0.00    -0.246 OA
HETATM    5  N   UNL     1       4.467  -1.372  -0.051  1.00  0.00    -0.287 N 
HETATM    6  C   UNL     1       5.169  -2.645  -0.063  1.00  0.00     0.163 C 
HETATM    7  C   UNL     1       5.178  -0.196  -0.034  1.00  0.00     0.145 A 
HETATM    8  N   UNL     1       6.534  -0.072  -0.000  1.00  0.00    -0.336 N 
ATOM      9  HN  UNL     1       7.228  -0.819   0.028  1.00  0.00     0.168 HD
HETATM   10  C   UNL     1       6.749   1.229  -0.011  1.00  0.00     0.185 A 
HETATM   11  N   UNL     1       5.573   1.935  -0.051  1.00  0.00    -0.333 N 
HETATM   12  C   UNL     1       4.559   1.017  -0.052  1.00  0.00     0.149 A 
HETATM   13  C   UNL     1       3.147   1.166  -0.093  1.00  0.00     0.282 A 
HETATM   14  O   UNL     1       2.591   2.263  -0.127  1.00  0.00    -0.265 OA
ENDROOT
BRANCH  11  15
HETATM   15  C   UNL     1       5.445   3.382  -0.072  1.00  0.00     0.167 C 
BRANCH  15  16
HETATM   16  C   UNL     1       5.334   3.944  -1.502  1.00  0.00     0.171 C 
BRANCH  16  17
HETATM   17  O   UNL     1       4.215   3.402  -2.210  1.00  0.00    -0.389 OA
HETATM   18  H   UNL     1       3.411   3.534  -1.672  1.00  0.00     0.210 HD
ENDBRANCH  16  17
BRANCH  16  19
HETATM   19  C   UNL     1       5.203   5.455  -1.539  1.00  0.00    -0.006 A 
HETATM   20  C   UNL     1       4.103   6.073  -0.906  1.00  0.00     0.011 A 
HETATM   21  C   UNL     1       3.905   7.454  -0.980  1.00  0.00     0.001 A 
HETATM   22  C   UNL     1       4.802   8.249  -1.685  1.00  0.00     0.002 A 
HETATM   23  C   UNL     1       5.903   7.663  -2.305  1.00  0.00     0.024 A 
HETATM   24  C   UNL     1       6.107   6.279  -2.232  1.00  0.00     0.043 A 
HETATM   25 CL   UNL     1       7.512   5.657  -3.025  1.00  0.00    -0.084 Cl
ENDBRANCH  16  19
ENDBRANCH  15  16
ENDBRANCH  11  15
TORSDOF 4
