REMARK  6 active torsions:
REMARK  status: ('A' for Active; 'I' for Inactive)
REMARK    1  A    between atoms: N_8  and  C_9 
REMARK    2  A    between atoms: C_9  and  C_10 
REMARK    3  A    between atoms: C_10  and  O_11 
REMARK    4  A    between atoms: C_10  and  C_12 
REMARK    5  A    between atoms: C_12  and  S_13 
REMARK    6  A    between atoms: S_13  and  C_14 
ROOT
HETATM    1  C   UNL     1       7.649   0.859  -0.007  1.00  0.00     0.162 C 
ENDROOT
BRANCH   1   2
HETATM    2  N   UNL     1       6.532  -0.066  -0.049  1.00  0.00    -0.339 N 
HETATM    3  C   UNL     1       5.967  -0.682   1.032  1.00  0.00     0.184 A 
HETATM    4  N   UNL     1       4.947  -1.432   0.685  1.00  0.00    -0.350 N 
HETATM    5  C   UNL     1       4.863  -1.317  -0.681  1.00  0.00     0.060 A 
ATOM      6  HN  UNL     1       4.346  -1.982   1.298  1.00  0.00     0.166 HD
HETATM    7  C   UNL     1       3.953  -1.899  -1.574  1.00  0.00     0.039 A 
HETATM    8  C   UNL     1       5.859  -0.481  -1.173  1.00  0.00     0.062 A 
HETATM    9  C   UNL     1       4.059  -1.629  -2.953  1.00  0.00    -0.054 A 
HETATM   10  C   UNL     1       3.060  -2.254  -3.890  1.00  0.00     0.049 C 
HETATM   11  C   UNL     1       5.083  -0.783  -3.430  1.00  0.00    -0.054 A 
HETATM   12  C   UNL     1       6.004  -0.202  -2.537  1.00  0.00     0.039 A 
HETATM   13  C   UNL     1       5.212  -0.472  -4.899  1.00  0.00     0.049 C 
ENDBRANCH   1   2
BRANCH   1  14
HETATM   14  C   UNL     1       7.240   2.338   0.134  1.00  0.00     0.146 C 
BRANCH  14  15
HETATM   15  O   UNL     1       6.491   2.763  -1.014  1.00  0.00    -0.393 OA
HETATM   16  H   UNL     1       5.658   2.255  -1.048  1.00  0.00     0.210 HD
ENDBRANCH  14  15
BRANCH  14  17
HETATM   17  C   UNL     1       6.487   2.703   1.425  1.00  0.00     0.115 C 
BRANCH  17  18
HETATM   18  S   UNL     1       7.516   2.396   2.899  1.00  0.00    -0.091 SA
BRANCH  18  19
HETATM   19  C   UNL     1       6.433   2.849   4.170  1.00  0.00     0.145 A 
HETATM   20  N   UNL     1       5.219   3.322   4.009  1.00  0.00    -0.345 N 
HETATM   21  C   UNL     1       4.745   3.536   5.276  1.00  0.00     0.107 A 
ATOM     22  HN  UNL     1       4.733   3.493   3.129  1.00  0.00     0.167 HD
HETATM   23  C   UNL     1       5.684   3.186   6.217  1.00  0.00     0.109 A 
HETATM   24  N   UNL     1       6.762   2.744   5.496  1.00  0.00    -0.341 N 
HETATM   25  C   UNL     1       7.996   2.256   6.063  1.00  0.00     0.158 C 
ENDBRANCH  18  19
ENDBRANCH  17  18
ENDBRANCH  14  17
ENDBRANCH   1  14
TORSDOF 6
