REMARK  4 active torsions:
REMARK  status: ('A' for Active; 'I' for Inactive)
REMARK    1  A    between atoms: C_2  and  C_5 
REMARK    2  A    between atoms: N_11  and  C_12 
REMARK    3  A    between atoms: C_12  and  C_13 
REMARK       I    between atoms: C_13  and  N_15 
REMARK    4  A    between atoms: N_15  and  C_16 
ROOT
HETATM    1  C   UNL     1       2.457  -0.500  -3.581  1.00  0.00     0.065 C 
HETATM    2  C   UNL     1       3.394  -0.912  -2.551  1.00  0.00     0.047 C 
HETATM    3  C   UNL     1       4.278  -0.049  -2.030  1.00  0.00     0.102 C 
HETATM    4 CL   UNL     1       5.369  -0.526  -0.789  1.00  0.00    -0.078 Cl
HETATM    5  C   UNL     1       4.315   1.374  -2.508  1.00  0.00     0.269 C 
HETATM    6  O   UNL     1       5.174   2.168  -2.132  1.00  0.00    -0.266 OA
HETATM    7  N   UNL     1       3.292   1.729  -3.392  1.00  0.00    -0.314 N 
HETATM    8  C   UNL     1       2.422   0.796  -3.939  1.00  0.00     0.111 C 
ENDROOT
BRANCH   7   9
HETATM    9  C   UNL     1       3.181   3.132  -3.785  1.00  0.00     0.234 C 
BRANCH   9  10
HETATM   10  C   UNL     1       3.811   3.414  -5.145  1.00  0.00     0.236 C 
HETATM   11  O   UNL     1       3.157   3.345  -6.184  1.00  0.00    -0.272 OA
HETATM   12  N   UNL     1       5.158   3.719  -5.100  1.00  0.00    -0.355 N 
HETATM   13  H   UNL     1       5.652   3.631  -4.215  1.00  0.00     0.162 HD
BRANCH  12  14
HETATM   14  C   UNL     1       5.871   4.170  -6.253  1.00  0.00     0.084 A 
HETATM   15  C   UNL     1       6.585   3.204  -7.155  1.00  0.00     0.027 A 
HETATM   16  C   UNL     1       7.374   4.141  -6.288  1.00  0.00     0.027 A 
ENDBRANCH  12  14
ENDBRANCH   9  10
ENDBRANCH   7   9
BRANCH   1  17
HETATM   17  C   UNL     1       1.547  -1.526  -4.202  1.00  0.00     0.418 C 
HETATM   18  F   UNL     1       1.742  -2.774  -3.705  1.00  0.00    -0.166 F 
HETATM   19  F   UNL     1       1.731  -1.608  -5.544  1.00  0.00    -0.166 F 
HETATM   20  F   UNL     1       0.240  -1.224  -3.999  1.00  0.00    -0.166 F 
ENDBRANCH   1  17
TORSDOF 4
