REMARK  8 active torsions:
REMARK  status: ('A' for Active; 'I' for Inactive)
REMARK    1  A    between atoms: C_2  and  C_3 
REMARK    2  A    between atoms: C_3  and  C_4 
REMARK    3  A    between atoms: C_4  and  N_5 
REMARK    4  A    between atoms: N_5  and  S_7 
REMARK    5  A    between atoms: S_7  and  N_10 
REMARK    6  A    between atoms: N_10  and  C_11 
REMARK    7  A    between atoms: C_11  and  C_12 
REMARK    8  A    between atoms: C_17  and  N_19 
ROOT
HETATM    1  C   UNL     1       9.239   3.250   4.998  1.00  0.00    -0.039 A 
HETATM    2  C   UNL     1      10.407   4.005   4.983  1.00  0.00     0.025 A 
HETATM    3  C   UNL     1      10.824   4.577   6.172  1.00  0.00     0.090 A 
HETATM    4  N   UNL     1      10.172   4.447   7.351  1.00  0.00    -0.352 N 
ATOM      5  HN  UNL     1      10.537   4.878   8.200  1.00  0.00     0.166 HD
HETATM    6  C   UNL     1       9.027   3.732   7.375  1.00  0.00     0.103 A 
HETATM    7  C   UNL     1       8.570   3.104   6.219  1.00  0.00     0.056 A 
ENDROOT
BRANCH   1   8
HETATM    8  C   UNL     1       8.719   2.580   3.757  1.00  0.00     0.144 C 
BRANCH   8   9
HETATM    9  N   UNL     1       7.240   2.542   3.616  1.00  0.00    -0.202 NA
HETATM   10  H   UNL     1       6.993   1.997   2.791  1.00  0.00     0.141 HD
BRANCH   9  11
HETATM   11  S   UNL     1       6.519   4.046   3.419  1.00  0.00     0.280 S 
HETATM   12  O   UNL     1       6.996   4.564   2.162  1.00  0.00    -0.194 OA
HETATM   13  O   UNL     1       6.586   4.807   4.640  1.00  0.00    -0.194 OA
BRANCH  11  14
HETATM   14  N   UNL     1       4.901   3.550   3.220  1.00  0.00    -0.202 NA
HETATM   15  C   UNL     1       4.076   4.687   2.730  1.00  0.00     0.130 C 
BRANCH  14  16
HETATM   16  C   UNL     1       4.312   2.900   4.437  1.00  0.00     0.108 C 
BRANCH  16  17
HETATM   17  C   UNL     1       2.919   2.309   4.186  1.00  0.00     0.015 C 
BRANCH  17  18
HETATM   18  C   UNL     1       2.898   1.250   3.082  1.00  0.00    -0.003 C 
HETATM   19  C   UNL     1       1.492   0.711   2.860  1.00  0.00     0.005 C 
ENDBRANCH  17  18
ENDBRANCH  16  17
ENDBRANCH  14  16
ENDBRANCH  11  14
ENDBRANCH   9  11
ENDBRANCH   8   9
ENDBRANCH   1   8
BRANCH   6  20
HETATM   20  N   UNL     1       8.338   3.588   8.560  1.00  0.00    -0.363 N 
HETATM   21  C   UNL     1       6.872   3.623   8.604  1.00  0.00     0.150 C 
HETATM   22  C   UNL     1       6.374   4.780   9.485  1.00  0.00     0.187 C 
HETATM   23  O   UNL     1       6.991   4.770  10.782  1.00  0.00    -0.388 OA
HETATM   24  C   UNL     1       8.415   4.921  10.641  1.00  0.00     0.187 C 
HETATM   25  C   UNL     1       9.024   3.765   9.839  1.00  0.00     0.150 C 
ENDBRANCH   6  20
TORSDOF 8
