REMARK  3 active torsions:
REMARK  status: ('A' for Active; 'I' for Inactive)
REMARK       I    between atoms: C_2  and  N_3 
REMARK       I    between atoms: C_2  and  N_13 
REMARK    1  A    between atoms: N_3  and  C_4 
REMARK    2  A    between atoms: C_4  and  C_5 
REMARK    3  A    between atoms: C_5  and  C_6 
ROOT
HETATM    1  O   UNL     1       1.416   0.860   0.132  1.00  0.00    -0.247 OA
HETATM    2  C   UNL     1       2.144  -0.125   0.108  1.00  0.00     0.318 C 
HETATM    3  N   UNL     1       2.244  -0.947  -0.986  1.00  0.00    -0.343 N 
HETATM    4  N   UNL     1       2.977  -0.504   1.152  1.00  0.00    -0.332 N 
HETATM    5  C   UNL     1       3.127   0.397   2.297  1.00  0.00     0.137 C 
HETATM    6  C   UNL     1       4.585   0.574   2.728  1.00  0.00     0.095 C 
HETATM    7  S   UNL     1       5.410  -1.006   3.112  1.00  0.00    -0.156 SA
HETATM    8  C   UNL     1       5.012  -1.936   1.555  1.00  0.00     0.024 C 
HETATM    9  C   UNL     1       5.460  -3.407   1.730  1.00  0.00     0.022 C 
HETATM   10  C   UNL     1       6.981  -3.580   1.804  1.00  0.00     0.002 C 
HETATM   11  C   UNL     1       7.697  -2.923   0.627  1.00  0.00     0.000 C 
HETATM   12  C   UNL     1       7.269  -1.475   0.413  1.00  0.00     0.002 C 
HETATM   13  C   UNL     1       5.749  -1.347   0.328  1.00  0.00     0.022 C 
HETATM   14  C   UNL     1       3.480  -1.877   1.346  1.00  0.00     0.148 C 
HETATM   15  H   UNL     1       3.193  -1.245  -1.146  1.00  0.00     0.164 HD
ENDROOT
BRANCH   3  16
HETATM   16  C   UNL     1       1.459  -0.713  -2.183  1.00  0.00     0.129 C 
BRANCH  16  17
HETATM   17  C   UNL     1       1.754  -1.802  -3.214  1.00  0.00     0.060 C 
BRANCH  17  18
HETATM   18  C   UNL     1       0.967  -1.645  -4.479  1.00  0.00    -0.041 A 
HETATM   19  C   UNL     1       1.455  -0.897  -5.553  1.00  0.00     0.010 A 
HETATM   20  C   UNL     1       0.693  -0.780  -6.711  1.00  0.00     0.018 A 
HETATM   21  C   UNL     1      -0.537  -1.414  -6.753  1.00  0.00     0.087 A 
HETATM   22  N   UNL     1      -1.045  -2.141  -5.735  1.00  0.00    -0.375 N 
HETATM   23  C   UNL     1      -0.284  -2.238  -4.623  1.00  0.00     0.094 A 
ATOM     24  HN  UNL     1      -1.957  -2.594  -5.802  1.00  0.00     0.164 HD
ENDBRANCH  17  18
ENDBRANCH  16  17
ENDBRANCH   3  16
TORSDOF 3
