REMARK  7 active torsions:
REMARK  status: ('A' for Active; 'I' for Inactive)
REMARK    1  A    between atoms: C_7  and  O_8 
REMARK    2  A    between atoms: O_8  and  C_9 
REMARK    3  A    between atoms: C_9  and  C_10 
REMARK    4  A    between atoms: C_10  and  O_11 
REMARK    5  A    between atoms: C_10  and  C_12 
REMARK    6  A    between atoms: C_12  and  N_13 
REMARK    7  A    between atoms: C_16  and  N_21 
ROOT
HETATM    1  N   UNL     1       9.269   3.370   1.251  1.00  0.00    -0.254 N 
HETATM    2  N   UNL     1       8.971   3.793   2.533  1.00  0.00    -0.280 N 
ATOM      3  HN  UNL     1       8.309   4.552   2.697  1.00  0.00     0.189 HD
HETATM    4  C   UNL     1       9.562   3.192   3.522  1.00  0.00     0.127 A 
HETATM    5  C   UNL     1      10.555   2.110   3.374  1.00  0.00     0.056 A 
HETATM    6  C   UNL     1      10.775   1.680   2.130  1.00  0.00     0.080 A 
HETATM    7  C   UNL     1      10.083   2.280   0.971  1.00  0.00     0.262 A 
HETATM    8  O   UNL     1      10.263   1.803  -0.146  1.00  0.00    -0.267 OA
ENDROOT
BRANCH   1   9
HETATM    9  C   UNL     1       8.619   4.103   0.152  1.00  0.00     0.186 C 
BRANCH   9  10
HETATM   10  C   UNL     1       7.089   3.968   0.164  1.00  0.00     0.162 C 
BRANCH  10  11
HETATM   11  C   UNL     1       6.649   2.502   0.067  1.00  0.00     0.209 C 
BRANCH  11  12
HETATM   12  O   UNL     1       5.226   2.446  -0.067  1.00  0.00    -0.349 OA
BRANCH  12  13
HETATM   13  C   UNL     1       4.667   1.199  -0.141  1.00  0.00     0.069 A 
HETATM   14  C   UNL     1       5.367  -0.009  -0.178  1.00  0.00     0.043 A 
HETATM   15  C   UNL     1       4.681  -1.227  -0.279  1.00  0.00    -0.059 A 
HETATM   16  C   UNL     1       3.282  -1.227  -0.339  1.00  0.00     0.013 A 
HETATM   17  C   UNL     1       5.459  -2.510  -0.325  1.00  0.00     0.048 C 
HETATM   18  C   UNL     1       2.568  -0.023  -0.301  1.00  0.00    -0.059 A 
HETATM   19  C   UNL     1       1.070  -0.008  -0.367  1.00  0.00     0.048 C 
HETATM   20  C   UNL     1       3.272   1.183  -0.198  1.00  0.00     0.043 A 
ENDBRANCH  12  13
ENDBRANCH  11  12
ENDBRANCH  10  11
BRANCH  10  21
HETATM   21  O   UNL     1       6.562   4.574   1.356  1.00  0.00    -0.392 OA
HETATM   22  H   UNL     1       7.160   4.290   2.077  1.00  0.00     0.210 HD
ENDBRANCH  10  21
ENDBRANCH   9  10
ENDBRANCH   1   9
BRANCH   4  23
HETATM   23  N   UNL     1       9.238   3.569   4.840  1.00  0.00    -0.302 N 
HETATM   24  C   UNL     1       8.290   4.516   5.194  1.00  0.00     0.116 A 
HETATM   25  C   UNL     1       8.256   4.540   6.565  1.00  0.00     0.106 A 
HETATM   26  N   UNL     1       9.161   3.660   7.083  1.00  0.00    -0.360 N 
HETATM   27  C   UNL     1       9.732   3.100   6.039  1.00  0.00     0.189 A 
ATOM     28  HN  UNL     1       9.353   3.476   8.068  1.00  0.00     0.166 HD
ENDBRANCH   4  23
TORSDOF 7
