REMARK  6 active torsions:
REMARK  status: ('A' for Active; 'I' for Inactive)
REMARK    1  A    between atoms: C_2  and  N_4 
REMARK    2  A    between atoms: N_3  and  C_15 
REMARK    3  A    between atoms: C_9  and  C_10 
REMARK    4  A    between atoms: C_15  and  C_18 
REMARK    5  A    between atoms: C_18  and  C_22 
REMARK    6  A    between atoms: C_18  and  O_26 
ROOT
HETATM    1  C   UNL     1       0.333  -0.796  -0.325  1.00  0.00     0.122 A 
HETATM    2  C   UNL     1      -0.884  -1.526  -0.180  1.00  0.00     0.135 A 
HETATM    3  N   UNL     1       1.546   1.035  -0.395  1.00  0.00    -0.325 N 
HETATM    4  C   UNL     1       0.248   0.588  -0.426  1.00  0.00     0.140 A 
HETATM    5  N   UNL     1       1.662  -1.185  -0.307  1.00  0.00    -0.346 N 
ATOM      6  HN  UNL     1       2.026  -2.137  -0.277  1.00  0.00     0.167 HD
HETATM    7  C   UNL     1       2.356  -0.068  -0.336  1.00  0.00     0.185 A 
HETATM    8  N   UNL     1      -2.030  -0.775  -0.248  1.00  0.00    -0.337 N 
ATOM      9  HN  UNL     1      -2.940  -1.231  -0.186  1.00  0.00     0.168 HD
HETATM   10  N   UNL     1      -0.864   1.338  -0.471  1.00  0.00    -0.336 N 
ATOM     11  HN  UNL     1      -0.876   2.355  -0.551  1.00  0.00     0.168 HD
HETATM   12  C   UNL     1      -1.959   0.565  -0.396  1.00  0.00     0.183 A 
ENDROOT
BRANCH   2  13
HETATM   13  N   UNL     1      -0.995  -2.903   0.051  1.00  0.00    -0.360 N 
HETATM   14  C   UNL     1       0.132  -3.645   0.659  1.00  0.00     0.092 C 
HETATM   15  C   UNL     1       0.016  -5.122   0.209  1.00  0.00     0.026 C 
HETATM   16  C   UNL     1      -1.344  -5.731   0.536  1.00  0.00     0.004 C 
HETATM   17  C   UNL     1      -2.459  -4.886  -0.066  1.00  0.00     0.020 C 
HETATM   18  C   UNL     1      -2.347  -3.409   0.318  1.00  0.00     0.125 C 
BRANCH  14  19
HETATM   19  C   UNL     1       0.177  -3.511   2.201  1.00  0.00     0.035 C 
HETATM   20  C   UNL     1       0.321  -2.082   2.752  1.00  0.00     0.111 C 
HETATM   21  C   UNL     1       1.002  -2.287   4.078  1.00  0.00     0.218 C 
HETATM   22  N   UNL     1       1.524  -3.562   4.097  1.00  0.00    -0.361 N 
HETATM   23  O   UNL     1       1.138  -1.458   4.961  1.00  0.00    -0.274 OA
HETATM   24  C   UNL     1       1.377  -4.216   2.832  1.00  0.00     0.129 C 
HETATM   25  H   UNL     1       2.154  -3.837   4.840  1.00  0.00     0.162 HD
ENDBRANCH  14  19
ENDBRANCH   2  13
BRANCH   3  26
HETATM   26  C   UNL     1       1.986   2.409  -0.217  1.00  0.00     0.165 C 
BRANCH  26  27
HETATM   27  C   UNL     1       2.812   2.965  -1.387  1.00  0.00     0.165 C 
BRANCH  27  28
HETATM   28  C   UNL     1       3.268   4.421  -1.182  1.00  0.00     0.151 C 
HETATM   29  O   UNL     1       4.068   4.523   0.017  1.00  0.00    -0.383 OA
HETATM   30  C   UNL     1       3.931   5.863   0.526  1.00  0.00     0.168 C 
HETATM   31  C   UNL     1       2.981   6.602  -0.398  1.00  0.00     0.029 C 
HETATM   32  C   UNL     1       2.196   5.481  -1.040  1.00  0.00     0.036 C 
ENDBRANCH  27  28
BRANCH  27  33
HETATM   33  O   UNL     1       4.008   2.178  -1.554  1.00  0.00    -0.391 OA
HETATM   34  H   UNL     1       4.703   2.606  -1.014  1.00  0.00     0.210 HD
ENDBRANCH  27  33
ENDBRANCH  26  27
ENDBRANCH   3  26
TORSDOF 6
