REMARK  4 active torsions:
REMARK  status: ('A' for Active; 'I' for Inactive)
REMARK    1  A    between atoms: C_2  and  C_3 
REMARK    2  A    between atoms: C_2  and  N_10 
REMARK    3  A    between atoms: C_3  and  N_4 
REMARK       I    between atoms: N_10  and  C_11 
REMARK    4  A    between atoms: C_11  and  C_13 
ROOT
HETATM    1  N   UNL     1       3.104  -1.462  -0.315  1.00  0.00    -0.355 N 
HETATM    2  C   UNL     1       4.440  -1.542  -0.658  1.00  0.00     0.222 C 
HETATM    3  O   UNL     1       5.138  -0.560  -0.879  1.00  0.00    -0.273 OA
HETATM    4  H   UNL     1       2.609  -2.310  -0.055  1.00  0.00     0.162 HD
ENDROOT
BRANCH   1   5
HETATM    5  C   UNL     1       2.421  -0.184  -0.115  1.00  0.00     0.100 C 
HETATM    6  C   UNL     1       1.697   0.214  -1.403  1.00  0.00     0.034 C 
BRANCH   5   7
HETATM    7  C   UNL     1       1.417  -0.223   1.045  1.00  0.00     0.172 C 
BRANCH   7   8
HETATM    8  N   UNL     1       2.023  -0.591   2.312  1.00  0.00    -0.302 N 
HETATM    9  C   UNL     1       2.618   0.243   3.213  1.00  0.00     0.111 A 
HETATM   10  C   UNL     1       2.993  -0.548   4.274  1.00  0.00     0.037 A 
HETATM   11  C   UNL     1       2.573  -1.843   3.919  1.00  0.00     0.108 A 
HETATM   12  N   UNL     1       1.985  -1.878   2.720  1.00  0.00    -0.310 N 
ATOM     13  HN  UNL     1       1.599  -2.685   2.229  1.00  0.00     0.186 HD
ENDBRANCH   7   8
ENDBRANCH   5   7
ENDBRANCH   1   5
BRANCH   2  14
HETATM   14  C   UNL     1       4.962  -2.968  -0.748  1.00  0.00     0.088 C 
HETATM   15  C   UNL     1       6.477  -3.070  -0.572  1.00  0.00     0.034 C 
HETATM   16  C   UNL     1       7.245  -2.768  -1.850  1.00  0.00     0.126 C 
HETATM   17  N   UNL     1       6.723  -3.510  -2.985  1.00  0.00    -0.356 N 
HETATM   18  C   UNL     1       7.591  -3.664  -4.138  1.00  0.00     0.152 C 
HETATM   19  C   UNL     1       5.359  -3.401  -3.241  1.00  0.00     0.220 C 
HETATM   20  O   UNL     1       4.882  -3.311  -4.369  1.00  0.00    -0.273 OA
HETATM   21  C   UNL     1       4.476  -3.628  -2.031  1.00  0.00     0.117 C 
ENDBRANCH   2  14
TORSDOF 4
