REMARK  4 active torsions:
REMARK  status: ('A' for Active; 'I' for Inactive)
REMARK    1  A    between atoms: C_2  and  C_5 
REMARK    2  A    between atoms: N_10  and  C_11 
REMARK    3  A    between atoms: C_11  and  C_12 
REMARK       I    between atoms: C_12  and  N_14 
REMARK    4  A    between atoms: N_14  and  C_15 
ROOT
HETATM    1  C   UNL     1       6.539   1.492   2.259  1.00  0.00     0.236 C 
HETATM    2  O   UNL     1       6.323   0.641   1.397  1.00  0.00    -0.272 OA
HETATM    3  N   UNL     1       7.454   1.318   3.277  1.00  0.00    -0.347 N 
HETATM    4  H   UNL     1       7.814   2.153   3.740  1.00  0.00     0.163 HD
ENDROOT
BRANCH   1   5
HETATM    5  C   UNL     1       5.817   2.839   2.252  1.00  0.00     0.234 C 
BRANCH   5   6
HETATM    6  N   UNL     1       6.569   3.851   1.515  1.00  0.00    -0.315 N 
HETATM    7  C   UNL     1       7.435   4.664   2.235  1.00  0.00     0.247 A 
HETATM    8  C   UNL     1       8.168   5.690   1.445  1.00  0.00     0.075 A 
HETATM    9  O   UNL     1       7.612   4.584   3.448  1.00  0.00    -0.268 OA
HETATM   10  C   UNL     1       8.011   5.759   0.116  1.00  0.00     0.023 A 
HETATM   11  C   UNL     1       7.133   4.840  -0.584  1.00  0.00     0.063 A 
HETATM   12  C   UNL     1       6.444   3.935   0.135  1.00  0.00     0.110 A 
BRANCH  11  13
HETATM   13  C   UNL     1       7.026   4.909  -2.082  1.00  0.00     0.418 C 
HETATM   14  F   UNL     1       7.890   5.800  -2.634  1.00  0.00    -0.166 F 
HETATM   15  F   UNL     1       5.782   5.279  -2.483  1.00  0.00    -0.166 F 
HETATM   16  F   UNL     1       7.285   3.710  -2.664  1.00  0.00    -0.166 F 
ENDBRANCH  11  13
ENDBRANCH   5   6
ENDBRANCH   1   5
BRANCH   3  17
HETATM   17  C   UNL     1       8.238   0.081   3.395  1.00  0.00     0.170 C 
HETATM   18  C   UNL     1       7.493  -0.924   4.279  1.00  0.00     0.034 C 
HETATM   19  C   UNL     1       8.088  -2.327   4.175  1.00  0.00     0.004 C 
HETATM   20  C   UNL     1       9.267  -2.584   5.106  1.00  0.00     0.015 C 
HETATM   21  C   UNL     1      10.129  -1.377   5.438  1.00  0.00     0.095 C 
HETATM   22  N   UNL     1      10.506  -0.551   4.311  1.00  0.00    -0.261 NA
HETATM   23  C   UNL     1       9.680   0.430   3.819  1.00  0.00     0.220 C 
HETATM   24  H   UNL     1      11.439  -0.163   4.398  1.00  0.00     0.130 HD
HETATM   25  O   UNL     1      10.173   1.540   3.599  1.00  0.00    -0.278 OA
ENDBRANCH   3  17
TORSDOF 4
