REMARK  4 active torsions:
REMARK  status: ('A' for Active; 'I' for Inactive)
REMARK       I    between atoms: C_2  and  N_3 
REMARK    1  A    between atoms: C_2  and  C_13 
REMARK    2  A    between atoms: N_3  and  C_4 
REMARK    3  A    between atoms: C_4  and  C_5 
REMARK    4  A    between atoms: C_5  and  C_6 
ROOT
HETATM    1  O   UNL     1       1.044  -0.195  -0.213  1.00  0.00    -0.273 OA
HETATM    2  C   UNL     1       2.210   0.128  -0.007  1.00  0.00     0.222 C 
HETATM    3  N   UNL     1       2.849   1.102  -0.737  1.00  0.00    -0.360 N 
HETATM    4  H   UNL     1       3.819   1.309  -0.539  1.00  0.00     0.162 HD
ENDROOT
BRANCH   3   5
HETATM    5  C   UNL     1       2.157   1.906  -1.737  1.00  0.00     0.128 C 
BRANCH   5   6
HETATM    6  C   UNL     1       3.114   2.900  -2.388  1.00  0.00     0.076 C 
BRANCH   6   7
HETATM    7  C   UNL     1       2.465   3.755  -3.439  1.00  0.00     0.010 A 
HETATM    8  C   UNL     1       2.430   3.341  -4.769  1.00  0.00     0.025 A 
HETATM    9  C   UNL     1       1.888   4.198  -5.724  1.00  0.00     0.003 A 
HETATM   10  C   UNL     1       1.390   5.432  -5.329  1.00  0.00     0.017 A 
HETATM   11  C   UNL     1       1.443   5.757  -3.983  1.00  0.00     0.088 A 
HETATM   12  N   UNL     1       1.967   4.948  -3.036  1.00  0.00    -0.369 N 
ATOM     13  HN  UNL     1       1.987   5.225  -2.055  1.00  0.00     0.165 HD
ENDBRANCH   6   7
ENDBRANCH   5   6
ENDBRANCH   3   5
BRANCH   2  14
HETATM   14  C   UNL     1       3.093  -0.528   1.060  1.00  0.00     0.082 C 
HETATM   15  C   UNL     1       2.343  -1.627   1.825  1.00  0.00     0.040 C 
HETATM   16  C   UNL     1       1.333  -1.040   2.806  1.00  0.00     0.168 C 
HETATM   17  O   UNL     1       1.967  -0.114   3.690  1.00  0.00    -0.391 OA
HETATM   18  C   UNL     1       2.545   0.988   2.993  1.00  0.00     0.168 C 
HETATM   19  C   UNL     1       3.645   0.497   2.060  1.00  0.00     0.040 C 
ENDBRANCH   2  14
TORSDOF 4
