REMARK  5 active torsions:
REMARK  status: ('A' for Active; 'I' for Inactive)
REMARK       I    between atoms: C_2  and  N_3 
REMARK       I    between atoms: C_2  and  N_13 
REMARK    1  A    between atoms: N_3  and  C_4 
REMARK    2  A    between atoms: C_4  and  C_5 
REMARK    3  A    between atoms: C_5  and  C_6 
REMARK    4  A    between atoms: N_13  and  C_14 
REMARK    5  A    between atoms: C_14  and  C_15 
ROOT
HETATM    1  O   UNL     1       2.932   1.036   0.221  1.00  0.00    -0.247 OA
HETATM    2  C   UNL     1       2.272   0.013   0.067  1.00  0.00     0.316 C 
HETATM    3  N   UNL     1       2.906  -1.181  -0.120  1.00  0.00    -0.343 N 
HETATM    4  N   UNL     1       0.914  -0.042   0.072  1.00  0.00    -0.343 N 
HETATM    5  H   UNL     1       3.916  -1.091  -0.153  1.00  0.00     0.164 HD
HETATM    6  H   UNL     1       0.473  -0.878  -0.264  1.00  0.00     0.164 HD
ENDROOT
BRANCH   3   7
HETATM    7  C   UNL     1       2.283  -2.457  -0.415  1.00  0.00     0.129 C 
BRANCH   7   8
HETATM    8  C   UNL     1       3.274  -3.611  -0.534  1.00  0.00     0.060 C 
BRANCH   8   9
HETATM    9  C   UNL     1       2.558  -4.883  -0.896  1.00  0.00    -0.041 A 
HETATM   10  C   UNL     1       2.342  -5.242  -2.230  1.00  0.00     0.010 A 
HETATM   11  C   UNL     1       1.641  -6.407  -2.527  1.00  0.00     0.018 A 
HETATM   12  C   UNL     1       1.168  -7.174  -1.476  1.00  0.00     0.087 A 
HETATM   13  N   UNL     1       1.343  -6.854  -0.176  1.00  0.00    -0.375 N 
HETATM   14  C   UNL     1       2.032  -5.720   0.084  1.00  0.00     0.094 A 
ATOM     15  HN  UNL     1       0.974  -7.439   0.573  1.00  0.00     0.164 HD
ENDBRANCH   8   9
ENDBRANCH   7   8
ENDBRANCH   3   7
BRANCH   4  16
HETATM   16  C   UNL     1       0.084   1.135   0.104  1.00  0.00     0.129 C 
BRANCH  16  17
HETATM   17  C   UNL     1      -0.989   0.981   1.138  1.00  0.00     0.003 A 
HETATM   18  C   UNL     1      -1.958  -0.180   1.176  1.00  0.00     0.007 A 
HETATM   19  C   UNL     1      -2.432   1.173   0.734  1.00  0.00     0.007 A 
ENDBRANCH  16  17
ENDBRANCH   4  16
TORSDOF 5
