REMARK  4 active torsions:
REMARK  status: ('A' for Active; 'I' for Inactive)
REMARK    1  A    between atoms: C_2  and  C_5 
REMARK       I    between atoms: C_5  and  N_7 
REMARK    2  A    between atoms: N_7  and  C_8 
REMARK    3  A    between atoms: C_11  and  C_12 
REMARK    4  A    between atoms: C_12  and  C_13 
REMARK       I    between atoms: C_13  and  N_15 
ROOT
HETATM    1  C   UNL     1       4.806  -3.150   0.003  1.00  0.00     0.151 A 
HETATM    2  N   UNL     1       6.051  -3.481   0.284  1.00  0.00    -0.339 N 
ATOM      3  HN  UNL     1       6.794  -2.825   0.524  1.00  0.00     0.168 HD
HETATM    4  C   UNL     1       6.196  -4.873   0.203  1.00  0.00     0.026 A 
HETATM    5  C   UNL     1       5.052  -5.543  -0.191  1.00  0.00     0.078 A 
HETATM    6  S   UNL     1       3.804  -4.434  -0.509  1.00  0.00    -0.064 SA
ENDROOT
BRANCH   1   7
HETATM    7  N   UNL     1       4.346  -1.844   0.062  1.00  0.00    -0.306 N 
HETATM    8  C   UNL     1       3.008  -1.492   0.112  1.00  0.00     0.231 C 
HETATM    9  O   UNL     1       2.071  -2.291   0.134  1.00  0.00    -0.272 OA
HETATM   10  H   UNL     1       5.064  -1.167   0.268  1.00  0.00     0.171 HD
BRANCH   8  11
HETATM   11  C   UNL     1       2.705   0.025   0.177  1.00  0.00     0.030 C 
HETATM   12  C   UNL     1       1.173   0.203   0.269  1.00  0.00     0.025 C 
HETATM   13  C   UNL     1       3.194   0.739  -1.090  1.00  0.00     0.025 C 
HETATM   14  C   UNL     1       3.339   0.660   1.420  1.00  0.00     0.025 C 
ENDBRANCH   8  11
ENDBRANCH   1   7
BRANCH   4  15
HETATM   15  C   UNL     1       7.486  -5.522   0.588  1.00  0.00     0.160 C 
BRANCH  15  16
HETATM   16  C   UNL     1       8.045  -6.399  -0.519  1.00  0.00     0.221 C 
HETATM   17  O   UNL     1       7.428  -7.317  -1.051  1.00  0.00    -0.273 OA
HETATM   18  N   UNL     1       9.333  -6.143  -0.892  1.00  0.00    -0.370 N 
HETATM   19  H   UNL     1       9.869  -5.361  -0.543  1.00  0.00     0.159 HD
HETATM   20  H   UNL     1       9.714  -6.691  -1.654  1.00  0.00     0.159 HD
ENDBRANCH  15  16
ENDBRANCH   4  15
TORSDOF 4
