REMARK  6 active torsions:
REMARK  status: ('A' for Active; 'I' for Inactive)
REMARK    1  A    between atoms: C_4  and  N_5 
REMARK       I    between atoms: N_5  and  C_6 
REMARK       I    between atoms: C_6  and  N_8 
REMARK    2  A    between atoms: N_8  and  C_9 
REMARK    3  A    between atoms: N_12  and  C_13 
REMARK    4  A    between atoms: C_13  and  C_14 
REMARK    5  A    between atoms: C_14  and  C_15 
REMARK    6  A    between atoms: C_15  and  N_16 
ROOT
HETATM    1  C   UNL     1       1.122   0.022  -0.053  1.00  0.00     0.070 C 
HETATM    2  C   UNL     1       2.603   0.111  -0.056  1.00  0.00     0.025 A 
HETATM    3  C   UNL     1       3.419   1.266  -0.100  1.00  0.00     0.076 A 
HETATM    4  C   UNL     1       4.707   0.789  -0.171  1.00  0.00     0.127 A 
HETATM    5  N   UNL     1       4.607  -0.579  -0.148  1.00  0.00    -0.276 N 
HETATM    6  N   UNL     1       3.335  -1.007  -0.026  1.00  0.00    -0.301 N 
ATOM      7  HN  UNL     1       3.005  -1.968   0.068  1.00  0.00     0.187 HD
ENDROOT
BRANCH   4   8
HETATM    8  N   UNL     1       5.835   1.585  -0.295  1.00  0.00    -0.293 N 
HETATM    9  C   UNL     1       6.324   1.861  -1.606  1.00  0.00     0.322 C 
HETATM   10  O   UNL     1       5.891   1.252  -2.565  1.00  0.00    -0.247 OA
HETATM   11  N   UNL     1       7.276   2.841  -1.589  1.00  0.00    -0.338 N 
HETATM   12  H   UNL     1       7.610   3.227  -0.722  1.00  0.00     0.164 HD
HETATM   13  H   UNL     1       6.100   2.156   0.491  1.00  0.00     0.172 HD
BRANCH  11  14
HETATM   14  C   UNL     1       7.955   3.229  -2.788  1.00  0.00     0.086 A 
HETATM   15  C   UNL     1       8.522   4.612  -2.950  1.00  0.00     0.027 A 
HETATM   16  C   UNL     1       7.339   4.188  -3.768  1.00  0.00     0.027 A 
ENDBRANCH  11  14
ENDBRANCH   4   8
BRANCH   5  17
HETATM   17  C   UNL     1       5.680  -1.555  -0.113  1.00  0.00     0.163 C 
BRANCH  17  18
HETATM   18  C   UNL     1       5.282  -2.908  -0.696  1.00  0.00     0.126 C 
BRANCH  18  19
HETATM   19  C   UNL     1       6.466  -3.857  -0.611  1.00  0.00    -0.076 C 
BRANCH  19  20
HETATM   20  N   UNL     1       7.449  -4.644  -0.541  1.00  0.00    -0.370 N 
ATOM     21  HN2 UNL     1       6.673  -3.986  -0.620  1.00  0.00     0.165 HD
ATOM     22  HN1 UNL     1       8.244  -5.281  -0.484  1.00  0.00     0.165 HD
ENDBRANCH  19  20
ENDBRANCH  18  19
ENDBRANCH  17  18
ENDBRANCH   5  17
TORSDOF 6
