REMARK  5 active torsions:
REMARK  status: ('A' for Active; 'I' for Inactive)
REMARK    1  A    between atoms: O_2  and  C_3 
REMARK    2  A    between atoms: C_5  and  N_6 
REMARK       I    between atoms: N_6  and  C_7 
REMARK       I    between atoms: C_7  and  N_9 
REMARK    3  A    between atoms: N_9  and  C_10 
REMARK    4  A    between atoms: C_10  and  C_11 
REMARK    5  A    between atoms: C_11  and  C_14 
ROOT
HETATM    1  N   UNL     1       2.403   4.991  -0.589  1.00  0.00    -0.299 N 
HETATM    2  C   UNL     1       1.158   4.957  -0.070  1.00  0.00     0.299 C 
HETATM    3  O   UNL     1       0.704   3.865   0.280  1.00  0.00    -0.254 OA
HETATM    4  N   UNL     1       0.518   6.156   0.194  1.00  0.00    -0.243 NA
HETATM    5  H   UNL     1       2.972   4.210  -0.295  1.00  0.00     0.171 HD
HETATM    6  H   UNL     1       1.135   6.942   0.372  1.00  0.00     0.132 HD
ENDROOT
BRANCH   1   7
HETATM    7  C   UNL     1       3.083   6.037  -1.176  1.00  0.00     0.113 A 
HETATM    8  C   UNL     1       2.473   6.864  -2.085  1.00  0.00     0.104 A 
HETATM    9  C   UNL     1       3.266   7.873  -2.566  1.00  0.00     0.146 A 
HETATM   10  N   UNL     1       4.535   8.081  -2.174  1.00  0.00    -0.333 N 
HETATM   11  C   UNL     1       5.028   7.187  -1.313  1.00  0.00     0.183 A 
ATOM     12  HN  UNL     1       5.086   8.870  -2.512  1.00  0.00     0.168 HD
HETATM   13  N   UNL     1       4.370   6.137  -0.816  1.00  0.00    -0.338 N 
ATOM     14  HN  UNL     1       4.817   5.456  -0.203  1.00  0.00     0.168 HD
BRANCH   9  15
HETATM   15  O   UNL     1       2.699   8.691  -3.522  1.00  0.00    -0.341 OA
HETATM   16  C   UNL     1       3.513   9.816  -3.834  1.00  0.00     0.211 C 
ENDBRANCH   9  15
ENDBRANCH   1   7
BRANCH   4  17
HETATM   17  C   UNL     1      -0.572   5.987   1.120  1.00  0.00     0.106 C 
BRANCH  17  18
HETATM   18  C   UNL     1      -1.448   7.139   1.575  1.00  0.00    -0.025 A 
HETATM   19  C   UNL     1      -2.115   7.962   0.485  1.00  0.00     0.012 A 
HETATM   20  C   UNL     1      -1.122   8.619   1.392  1.00  0.00     0.012 A 
BRANCH  18  21
HETATM   21  C   UNL     1      -2.165   6.714   2.872  1.00  0.00    -0.005 A 
HETATM   22  C   UNL     1      -2.990   5.435   2.853  1.00  0.00     0.006 A 
HETATM   23  C   UNL     1      -3.635   6.741   3.186  1.00  0.00     0.006 A 
ENDBRANCH  18  21
ENDBRANCH  17  18
ENDBRANCH   4  17
TORSDOF 5
