REMARK  4 active torsions:
REMARK  status: ('A' for Active; 'I' for Inactive)
REMARK    1  A    between atoms: C_2  and  N_3 
REMARK    2  A    between atoms: C_2  and  C_15 
REMARK       I    between atoms: N_3  and  C_4 
REMARK    3  A    between atoms: C_4  and  C_6 
REMARK    4  A    between atoms: C_6  and  N_7 
ROOT
HETATM    1  N   UNL     1       3.013   0.997  -0.961  1.00  0.00    -0.353 N 
HETATM    2  C   UNL     1       3.164   0.618  -2.279  1.00  0.00     0.236 C 
HETATM    3  O   UNL     1       2.803  -0.477  -2.709  1.00  0.00    -0.272 OA
HETATM    4  H   UNL     1       3.039   1.990  -0.734  1.00  0.00     0.163 HD
ENDROOT
BRANCH   2   5
HETATM    5  C   UNL     1       3.799   1.665  -3.194  1.00  0.00     0.235 C 
BRANCH   5   6
HETATM    6  N   UNL     1       2.805   2.451  -3.920  1.00  0.00    -0.301 N 
HETATM    7  C   UNL     1       2.301   1.986  -5.119  1.00  0.00     0.102 A 
HETATM    8  C   UNL     1       1.435   2.699  -5.842  1.00  0.00     0.092 A 
HETATM    9  C   UNL     1       1.009   4.017  -5.341  1.00  0.00     0.250 A 
HETATM   10  O   UNL     1       0.246   4.722  -5.989  1.00  0.00    -0.268 OA
HETATM   11  N   UNL     1       1.517   4.385  -4.130  1.00  0.00    -0.275 N 
HETATM   12  C   UNL     1       2.402   3.660  -3.375  1.00  0.00     0.329 A 
HETATM   13  H   UNL     1       1.237   5.282  -3.768  1.00  0.00     0.173 HD
HETATM   14  O   UNL     1       2.801   4.085  -2.293  1.00  0.00    -0.246 OA
ENDBRANCH   5   6
ENDBRANCH   2   5
BRANCH   1  15
HETATM   15  C   UNL     1       2.429   0.097   0.041  1.00  0.00     0.109 C 
HETATM   16  C   UNL     1       0.904   0.207   0.016  1.00  0.00     0.035 C 
BRANCH  15  17
HETATM   17  C   UNL     1       3.035   0.375   1.435  1.00  0.00     0.143 C 
HETATM   18  C   UNL     1       2.666  -0.641   2.516  1.00  0.00     0.036 C 
HETATM   19  C   UNL     1       2.255   0.190   3.712  1.00  0.00     0.029 C 
HETATM   20  C   UNL     1       2.698   1.591   3.361  1.00  0.00     0.168 C 
HETATM   21  O   UNL     1       2.631   1.664   1.934  1.00  0.00    -0.384 OA
ENDBRANCH  15  17
ENDBRANCH   1  15
TORSDOF 4
