REMARK  7 active torsions:
REMARK  status: ('A' for Active; 'I' for Inactive)
REMARK    1  A    between atoms: O_2  and  C_3 
REMARK    2  A    between atoms: C_3  and  C_4 
REMARK    3  A    between atoms: C_4  and  C_5 
REMARK    4  A    between atoms: N_8  and  C_9 
REMARK    5  A    between atoms: C_13  and  C_17 
REMARK    6  A    between atoms: C_21  and  O_22 
REMARK    7  A    between atoms: C_21  and  C_24 
ROOT
HETATM    1  C   UNL     1       4.899  -2.960   0.538  1.00  0.00     0.011 C 
HETATM    2  N   UNL     1       4.196  -4.045   0.616  1.00  0.00    -0.302 N 
ATOM      3  HN  UNL     1       3.179  -4.112   0.592  1.00  0.00     0.186 HD
HETATM    4  N   UNL     1       5.075  -5.080   0.737  1.00  0.00    -0.230 N 
HETATM    5  C   UNL     1       6.455  -4.656   0.412  1.00  0.00     0.258 C 
HETATM    6  C   UNL     1       6.361  -3.161   0.753  1.00  0.00     0.126 C 
ENDROOT
BRANCH   4   7
HETATM    7  C   UNL     1       4.661  -6.400   0.914  1.00  0.00     0.147 A 
HETATM    8  N   UNL     1       5.638  -7.352   0.896  1.00  0.00    -0.349 N 
HETATM    9  C   UNL     1       5.315  -8.654   1.151  1.00  0.00     0.106 A 
ATOM     10  HN  UNL     1       6.604  -7.093   0.693  1.00  0.00     0.167 HD
HETATM   11  C   UNL     1       4.043  -9.091   1.472  1.00  0.00     0.065 A 
HETATM   12  C   UNL     1       3.041  -8.126   1.491  1.00  0.00     0.045 A 
HETATM   13  C   UNL     1       3.332  -6.782   1.204  1.00  0.00     0.080 A 
HETATM   14 CL   UNL     1       1.973  -5.715   1.314  1.00  0.00    -0.080 Cl
BRANCH  11  15
HETATM   15  C   UNL     1       3.747 -10.519   1.816  1.00  0.00     0.418 C 
HETATM   16  F   UNL     1       4.811 -11.347   1.675  1.00  0.00    -0.166 F 
HETATM   17  F   UNL     1       3.324 -10.660   3.104  1.00  0.00    -0.166 F 
HETATM   18  F   UNL     1       2.755 -11.044   1.041  1.00  0.00    -0.166 F 
ENDBRANCH  11  15
ENDBRANCH   4   7
BRANCH   5  19
HETATM   19  O   UNL     1       7.409  -5.184   1.343  1.00  0.00    -0.362 OA
HETATM   20  H   UNL     1       6.872  -5.756   1.920  1.00  0.00     0.213 HD
ENDBRANCH   5  19
BRANCH   5  21
HETATM   21  C   UNL     1       6.834  -4.850  -1.103  1.00  0.00     0.440 C 
HETATM   22  F   UNL     1       5.816  -5.317  -1.865  1.00  0.00    -0.166 F 
HETATM   23  F   UNL     1       7.231  -3.679  -1.679  1.00  0.00    -0.166 F 
HETATM   24  F   UNL     1       7.872  -5.710  -1.268  1.00  0.00    -0.166 F 
ENDBRANCH   5  21
BRANCH   1  25
HETATM   25  C   UNL     1       4.294  -1.602   0.366  1.00  0.00     0.080 C 
BRANCH  25  26
HETATM   26  C   UNL     1       4.845  -0.908  -0.870  1.00  0.00     0.172 C 
BRANCH  26  27
HETATM   27  O   UNL     1       4.520  -1.683  -2.020  1.00  0.00    -0.396 OA
HETATM   28  C   UNL     1       5.014  -1.097  -3.217  1.00  0.00     0.201 C 
ENDBRANCH  26  27
ENDBRANCH  25  26
ENDBRANCH   1  25
TORSDOF 7
