REMARK  3 active torsions:
REMARK  status: ('A' for Active; 'I' for Inactive)
REMARK    1  A    between atoms: C_2  and  N_3 
REMARK    2  A    between atoms: C_5  and  N_6 
REMARK       I    between atoms: N_6  and  C_7 
REMARK       I    between atoms: C_7  and  N_9 
REMARK    3  A    between atoms: N_9  and  C_10 
ROOT
HETATM    1  N   UNL     1       1.845   4.803   0.214  1.00  0.00    -0.308 N 
HETATM    2  C   UNL     1       0.583   4.707  -0.337  1.00  0.00     0.321 C 
HETATM    3  O   UNL     1      -0.181   3.758  -0.203  1.00  0.00    -0.247 OA
HETATM    4  N   UNL     1       0.257   5.790  -1.116  1.00  0.00    -0.338 N 
HETATM    5  H   UNL     1       2.254   5.724   0.253  1.00  0.00     0.170 HD
HETATM    6  H   UNL     1       0.753   6.652  -0.951  1.00  0.00     0.164 HD
ENDROOT
BRANCH   1   7
HETATM    7  C   UNL     1       2.501   3.786   0.878  1.00  0.00     0.052 A 
HETATM    8  C   UNL     1       2.179   2.487   0.751  1.00  0.00     0.123 A 
HETATM    9  N   UNL     1       2.831   1.486   1.450  1.00  0.00    -0.323 N 
HETATM   10  C   UNL     1       3.880   1.755   2.320  1.00  0.00     0.247 A 
HETATM   11  C   UNL     1       4.257   3.191   2.447  1.00  0.00     0.077 A 
HETATM   12  O   UNL     1       4.499   0.911   2.962  1.00  0.00    -0.268 OA
HETATM   13  C   UNL     1       3.608   4.135   1.748  1.00  0.00     0.036 A 
BRANCH   9  14
HETATM   14  C   UNL     1       2.404   0.104   1.237  1.00  0.00     0.127 C 
HETATM   15  C   UNL     1       3.213  -0.578   0.144  1.00  0.00     0.027 C 
ENDBRANCH   9  14
ENDBRANCH   1   7
BRANCH   4  16
HETATM   16  C   UNL     1      -1.057   5.867  -1.753  1.00  0.00     0.086 C 
HETATM   17  C   UNL     1      -0.980   6.608  -3.090  1.00  0.00     0.025 C 
HETATM   18  C   UNL     1      -0.675   8.091  -2.908  1.00  0.00     0.002 C 
HETATM   19  C   UNL     1      -1.672   8.758  -1.964  1.00  0.00     0.000 C 
HETATM   20  C   UNL     1      -1.811   8.019  -0.634  1.00  0.00     0.002 C 
HETATM   21  C   UNL     1      -2.085   6.528  -0.827  1.00  0.00     0.025 C 
ENDBRANCH   4  16
TORSDOF 3
