REMARK  3 active torsions:
REMARK  status: ('A' for Active; 'I' for Inactive)
REMARK    1  A    between atoms: C_2  and  C_4 
REMARK       I    between atoms: C_4  and  N_6 
REMARK    2  A    between atoms: N_6  and  C_7 
REMARK    3  A    between atoms: C_10  and  N_14 
ROOT
HETATM    1  C   UNL     1       4.815  -0.286  -3.145  1.00  0.00     0.050 A 
HETATM    2  C   UNL     1       5.268   0.857  -3.780  1.00  0.00     0.035 A 
HETATM    3  C   UNL     1       5.666   0.778  -5.119  1.00  0.00     0.051 A 
HETATM    4  C   UNL     1       5.650  -0.442  -5.804  1.00  0.00     0.103 A 
HETATM    5  N   UNL     1       5.295  -1.569  -5.153  1.00  0.00    -0.350 N 
ATOM      6  HN  UNL     1       5.340  -2.475  -5.619  1.00  0.00     0.166 HD
HETATM    7  C   UNL     1       4.877  -1.473  -3.864  1.00  0.00     0.119 A 
ENDROOT
BRANCH   1   8
HETATM    8  N   UNL     1       4.290  -0.190  -1.841  1.00  0.00    -0.326 N 
HETATM    9  C   UNL     1       3.200  -0.942  -1.438  1.00  0.00     0.225 C 
HETATM   10  O   UNL     1       2.611  -1.751  -2.160  1.00  0.00    -0.273 OA
HETATM   11  H   UNL     1       4.477   0.661  -1.323  1.00  0.00     0.169 HD
BRANCH   9  12
HETATM   12  C   UNL     1       2.761  -0.687  -0.003  1.00  0.00     0.070 C 
HETATM   13  C   UNL     1       1.338  -1.206   0.215  1.00  0.00     0.019 C 
HETATM   14  C   UNL     1       3.736  -1.375   0.946  1.00  0.00     0.019 C 
ENDBRANCH   9  12
ENDBRANCH   1   8
BRANCH   4  15
HETATM   15  N   UNL     1       6.059  -0.531  -7.125  1.00  0.00    -0.363 N 
HETATM   16  C   UNL     1       5.723   0.519  -8.098  1.00  0.00     0.150 C 
HETATM   17  C   UNL     1       4.598   0.069  -9.044  1.00  0.00     0.187 C 
HETATM   18  O   UNL     1       4.908  -1.179  -9.681  1.00  0.00    -0.388 OA
HETATM   19  C   UNL     1       5.070  -2.203  -8.685  1.00  0.00     0.187 C 
HETATM   20  C   UNL     1       6.220  -1.872  -7.723  1.00  0.00     0.150 C 
ENDBRANCH   4  15
TORSDOF 3
