REMARK  3 active torsions:
REMARK  status: ('A' for Active; 'I' for Inactive)
REMARK       I    between atoms: C_2  and  N_3 
REMARK       I    between atoms: C_2  and  N_12 
REMARK    1  A    between atoms: N_3  and  C_4 
REMARK    2  A    between atoms: C_4  and  C_5 
REMARK    3  A    between atoms: N_12  and  C_13 
ROOT
HETATM    1  O   UNL     1       2.212  -0.670   1.634  1.00  0.00    -0.247 OA
HETATM    2  C   UNL     1       2.875  -0.352   0.649  1.00  0.00     0.321 C 
HETATM    3  N   UNL     1       2.971  -1.123  -0.468  1.00  0.00    -0.342 N 
HETATM    4  N   UNL     1       3.580   0.814   0.656  1.00  0.00    -0.295 N 
HETATM    5  H   UNL     1       3.521  -0.721  -1.224  1.00  0.00     0.164 HD
HETATM    6  H   UNL     1       3.470   1.332   1.515  1.00  0.00     0.172 HD
ENDROOT
BRANCH   3   7
HETATM    7  C   UNL     1       2.361  -2.417  -0.623  1.00  0.00     0.130 C 
BRANCH   7   8
HETATM    8  C   UNL     1       3.420  -3.509  -0.765  1.00  0.00     0.018 C 
HETATM    9  C   UNL     1       2.784  -4.899  -0.950  1.00  0.00     0.022 C 
HETATM   10  C   UNL     1       3.749  -5.985  -0.472  1.00  0.00     0.141 C 
HETATM   11  S   UNL     1       5.136  -5.167   0.286  1.00  0.00     0.144 S 
HETATM   12  O   UNL     1       5.370  -5.732   1.596  1.00  0.00    -0.228 OA
HETATM   13  O   UNL     1       6.187  -5.046  -0.705  1.00  0.00    -0.228 OA
HETATM   14  C   UNL     1       4.335  -3.593   0.455  1.00  0.00     0.146 C 
ENDBRANCH   7   8
ENDBRANCH   3   7
BRANCH   4  15
HETATM   15  C   UNL     1       4.427   1.336  -0.328  1.00  0.00     0.108 A 
HETATM   16  C   UNL     1       5.067   2.541  -0.057  1.00  0.00     0.049 A 
HETATM   17  C   UNL     1       5.919   3.082  -1.019  1.00  0.00     0.005 A 
HETATM   18  C   UNL     1       6.108   2.408  -2.218  1.00  0.00     0.017 A 
HETATM   19  C   UNL     1       5.435   1.215  -2.406  1.00  0.00     0.089 A 
HETATM   20  N   UNL     1       4.602   0.670  -1.492  1.00  0.00    -0.352 N 
ATOM     21  HN  UNL     1       4.123  -0.212  -1.673  1.00  0.00     0.166 HD
ENDBRANCH   4  15
TORSDOF 3
