REMARK  6 active torsions:
REMARK  status: ('A' for Active; 'I' for Inactive)
REMARK    1  A    between atoms: C_2  and  C_3 
REMARK    2  A    between atoms: C_3  and  N_4 
REMARK    3  A    between atoms: C_3  and  C_15 
REMARK    4  A    between atoms: N_4  and  C_5 
REMARK    5  A    between atoms: C_5  and  C_7 
REMARK    6  A    between atoms: C_7  and  N_8 
REMARK       I    between atoms: C_15  and  N_17 
ROOT
HETATM    1  N   UNL     1       2.606  -0.644   2.261  1.00  0.00     0.103 N 
HETATM    2  H   UNL     1       2.914  -0.011   2.996  1.00  0.00     0.317 HD
ENDROOT
BRANCH   1   3
HETATM    3  C   UNL     1       3.055  -0.082   0.952  1.00  0.00     0.311 C 
BRANCH   3   4
HETATM    4  C   UNL     1       4.580   0.114   0.883  1.00  0.00     0.041 C 
HETATM    5  C   UNL     1       5.383  -1.169   1.044  1.00  0.00     0.007 C 
ENDBRANCH   3   4
BRANCH   3   6
HETATM    6  C   UNL     1       2.372   1.273   0.660  1.00  0.00     0.248 C 
HETATM    7  O   UNL     1       1.592   1.448  -0.272  1.00  0.00    -0.271 OA
HETATM    8  N   UNL     1       2.667   2.299   1.518  1.00  0.00    -0.368 N 
HETATM    9  H   UNL     1       3.114   2.139   2.410  1.00  0.00     0.159 HD
HETATM   10  H   UNL     1       2.147   3.157   1.397  1.00  0.00     0.159 HD
ENDBRANCH   3   6
ENDBRANCH   1   3
BRANCH   1  11
HETATM   11  C   UNL     1       1.128  -0.802   2.366  1.00  0.00     0.237 C 
HETATM   12  C   UNL     1       0.578  -1.837   1.370  1.00  0.00     0.044 C 
BRANCH  11  13
HETATM   13  C   UNL     1       0.695  -1.266   3.780  1.00  0.00     0.183 C 
BRANCH  13  14
HETATM   14  N   UNL     1       1.003  -0.341   4.852  1.00  0.00    -0.301 N 
HETATM   15  C   UNL     1       1.788  -0.596   5.939  1.00  0.00     0.118 A 
HETATM   16  C   UNL     1       1.678   0.499   6.770  1.00  0.00    -0.028 A 
HETATM   17  C   UNL     1       2.302   0.713   8.094  1.00  0.00     0.051 C 
HETATM   18  C   UNL     1       0.809   1.368   6.072  1.00  0.00     0.115 A 
HETATM   19  N   UNL     1       0.414   0.869   4.898  1.00  0.00    -0.310 N 
ATOM     20  HN  UNL     1      -0.191   1.302   4.201  1.00  0.00     0.186 HD
ENDBRANCH  13  14
ENDBRANCH  11  13
ENDBRANCH   1  11
TORSDOF 6
