REMARK  4 active torsions:
REMARK  status: ('A' for Active; 'I' for Inactive)
REMARK    1  A    between atoms: O_1  and  C_2 
REMARK    2  A    between atoms: C_2  and  C_4 
REMARK    3  A    between atoms: C_9  and  O_10 
REMARK    4  A    between atoms: O_10  and  C_11 
ROOT
HETATM    1  C   UNL     1       3.139  -0.263   1.266  1.00  0.00     0.043 A 
HETATM    2  C   UNL     1       3.763   0.715   2.039  1.00  0.00     0.035 A 
HETATM    3  C   UNL     1       4.463   0.306   3.157  1.00  0.00     0.091 A 
HETATM    4  N   UNL     1       4.588  -0.986   3.527  1.00  0.00    -0.347 N 
ATOM      5  HN  UNL     1       5.098  -1.252   4.369  1.00  0.00     0.167 HD
HETATM    6  C   UNL     1       4.009  -1.909   2.735  1.00  0.00     0.143 A 
HETATM    7  C   UNL     1       3.259  -1.607   1.613  1.00  0.00     0.074 A 
ENDROOT
BRANCH   6   8
HETATM    8  O   UNL     1       4.139  -3.244   3.045  1.00  0.00    -0.328 OA
BRANCH   8   9
HETATM    9  C   UNL     1       5.287  -3.530   3.842  1.00  0.00     0.156 C 
HETATM   10  C   UNL     1       5.668  -4.985   3.659  1.00  0.00     0.061 C 
HETATM   11  C   UNL     1       6.300  -5.371   4.980  1.00  0.00     0.170 C 
HETATM   12  O   UNL     1       5.976  -4.357   5.940  1.00  0.00    -0.389 OA
HETATM   13  C   UNL     1       5.024  -3.471   5.336  1.00  0.00     0.200 C 
ENDBRANCH   8   9
ENDBRANCH   6   8
BRANCH   1  14
HETATM   14  C   UNL     1       2.422   0.168   0.046  1.00  0.00     0.176 C 
HETATM   15  O   UNL     1       2.776   1.126  -0.620  1.00  0.00    -0.646 OA
BRANCH  14  16
HETATM   16  O   UNL     1       1.326  -0.566  -0.236  1.00  0.00    -0.773 OA
HETATM   17  H   UNL     1       1.045  -1.186   0.461  1.00  0.00     0.167 HD
ENDBRANCH  14  16
ENDBRANCH   1  14
TORSDOF 4
