REMARK  5 active torsions:
REMARK  status: ('A' for Active; 'I' for Inactive)
REMARK    1  A    between atoms: C_2  and  C_3 
REMARK    2  A    between atoms: C_2  and  C_15 
REMARK    3  A    between atoms: C_3  and  N_4 
REMARK       I    between atoms: N_4  and  C_5 
REMARK       I    between atoms: C_5  and  N_7 
REMARK    4  A    between atoms: N_7  and  C_8 
REMARK    5  A    between atoms: C_8  and  C_10 
ROOT
HETATM    1  N   UNL     1       2.703   2.457  -1.050  1.00  0.00    -0.342 N 
HETATM    2  C   UNL     1       2.988   3.793  -0.936  1.00  0.00     0.316 C 
HETATM    3  O   UNL     1       3.591   4.286   0.010  1.00  0.00    -0.247 OA
HETATM    4  N   UNL     1       2.517   4.514  -2.007  1.00  0.00    -0.338 N 
HETATM    5  H   UNL     1       1.854   2.237  -1.563  1.00  0.00     0.164 HD
HETATM    6  H   UNL     1       2.395   3.979  -2.856  1.00  0.00     0.164 HD
ENDROOT
BRANCH   1   7
HETATM    7  C   UNL     1       2.992   1.585   0.079  1.00  0.00     0.135 C 
BRANCH   7   8
HETATM    8  C   UNL     1       2.684   0.099  -0.156  1.00  0.00     0.057 C 
HETATM    9  C   UNL     1       3.442  -0.471  -1.355  1.00  0.00     0.018 C 
BRANCH   8  10
HETATM   10  C   UNL     1       1.203  -0.135  -0.314  1.00  0.00     0.056 A 
HETATM   11  N   UNL     1       0.463   0.384  -1.275  1.00  0.00    -0.357 N 
HETATM   12  C   UNL     1      -0.842  -0.075  -1.169  1.00  0.00     0.012 A 
ATOM     13  HN  UNL     1       0.801   1.028  -1.990  1.00  0.00     0.166 HD
HETATM   14  C   UNL     1      -1.843   0.356  -2.179  1.00  0.00     0.068 C 
HETATM   15  C   UNL     1      -1.074  -0.925  -0.106  1.00  0.00     0.076 A 
HETATM   16  S   UNL     1       0.366  -1.162   0.785  1.00  0.00    -0.086 SA
ENDBRANCH   8  10
ENDBRANCH   7   8
ENDBRANCH   1   7
BRANCH   4  17
HETATM   17  C   UNL     1       2.832   5.935  -2.134  1.00  0.00     0.088 C 
HETATM   18  C   UNL     1       4.232   6.114  -2.727  1.00  0.00     0.032 C 
BRANCH  17  19
HETATM   19  C   UNL     1       1.772   6.670  -2.968  1.00  0.00     0.034 C 
HETATM   20  C   UNL     1       1.993   8.172  -3.067  1.00  0.00     0.035 C 
HETATM   21  C   UNL     1       0.598   8.755  -3.194  1.00  0.00     0.168 C 
HETATM   22  O   UNL     1      -0.338   7.699  -2.954  1.00  0.00    -0.391 OA
HETATM   23  C   UNL     1       0.378   6.605  -2.369  1.00  0.00     0.174 C 
ENDBRANCH  17  19
ENDBRANCH   4  17
TORSDOF 5
