REMARK  2 active torsions:
REMARK  status: ('A' for Active; 'I' for Inactive)
REMARK    1  A    between atoms: C_4  and  N_5 
REMARK       I    between atoms: N_5  and  C_6 
REMARK       I    between atoms: C_6  and  N_8 
REMARK    2  A    between atoms: N_8  and  C_9 
ROOT
HETATM    1  N   UNL     1       2.350  -1.531  -2.080  1.00  0.00    -0.338 N 
HETATM    2  C   UNL     1       2.102  -2.859  -1.785  1.00  0.00     0.321 C 
HETATM    3  O   UNL     1       2.189  -3.296  -0.644  1.00  0.00    -0.247 OA
HETATM    4  N   UNL     1       1.751  -3.597  -2.895  1.00  0.00    -0.307 N 
HETATM    5  H   UNL     1       2.575  -1.289  -3.034  1.00  0.00     0.164 HD
HETATM    6  H   UNL     1       1.334  -3.090  -3.666  1.00  0.00     0.170 HD
ENDROOT
BRANCH   4   7
HETATM    7  C   UNL     1       1.638  -5.016  -2.935  1.00  0.00     0.061 A 
HETATM    8  C   UNL     1       2.212  -5.820  -1.950  1.00  0.00     0.048 A 
HETATM    9  C   UNL     1       2.090  -7.193  -2.045  1.00  0.00     0.090 A 
HETATM   10  N   UNL     1       1.471  -7.819  -3.064  1.00  0.00    -0.368 N 
HETATM   11  C   UNL     1       0.928  -7.045  -4.039  1.00  0.00     0.029 A 
ATOM     12  HN  UNL     1       1.412  -8.837  -3.102  1.00  0.00     0.165 HD
HETATM   13  C   UNL     1       0.306  -7.803  -5.175  1.00  0.00     0.070 C 
HETATM   14  C   UNL     1       0.978  -5.644  -4.007  1.00  0.00     0.083 A 
HETATM   15 CL   UNL     1       0.233  -4.692  -5.247  1.00  0.00    -0.080 Cl
ENDBRANCH   4   7
BRANCH   1  16
HETATM   16  C   UNL     1       2.786  -0.649  -1.034  1.00  0.00     0.090 A 
HETATM   17  C   UNL     1       1.823   0.346  -0.435  1.00  0.00     0.006 A 
HETATM   18  C   UNL     1       0.444   0.508  -0.981  1.00  0.00     0.012 C 
HETATM   19  C   UNL     1       3.010   0.822  -1.228  1.00  0.00     0.032 A 
ENDBRANCH   1  16
TORSDOF 2
