REMARK  7 active torsions:
REMARK  status: ('A' for Active; 'I' for Inactive)
REMARK    1  A    between atoms: O_1  and  C_2 
REMARK    2  A    between atoms: C_2  and  C_3 
REMARK    3  A    between atoms: C_3  and  N_4 
REMARK    4  A    between atoms: N_4  and  C_5 
REMARK    5  A    between atoms: N_4  and  C_8 
REMARK    6  A    between atoms: C_5  and  C_6 
REMARK    7  A    between atoms: C_10  and  N_16 
ROOT
HETATM    1  C   UNL     1       5.071  -1.305   2.263  1.00  0.00     0.087 A 
HETATM    2  C   UNL     1       6.021  -0.694   3.064  1.00  0.00     0.090 A 
HETATM    3  C   UNL     1       6.738  -1.469   3.958  1.00  0.00     0.107 A 
HETATM    4  N   UNL     1       6.512  -2.791   4.037  1.00  0.00    -0.339 N 
ATOM      5  HN  UNL     1       7.022  -3.380   4.696  1.00  0.00     0.168 HD
HETATM    6  C   UNL     1       5.587  -3.302   3.212  1.00  0.00     0.183 A 
HETATM    7  N   UNL     1       4.857  -2.626   2.319  1.00  0.00    -0.343 N 
ATOM      8  HN  UNL     1       4.177  -3.089   1.716  1.00  0.00     0.167 HD
ENDROOT
BRANCH   1   9
HETATM    9  N   UNL     1       4.287  -0.473   1.419  1.00  0.00    -0.264 NA
BRANCH   9  10
HETATM   10  C   UNL     1       2.941  -1.044   1.178  1.00  0.00     0.123 C 
BRANCH  10  11
HETATM   11  C   UNL     1       2.122  -1.215   2.474  1.00  0.00     0.179 C 
BRANCH  11  12
HETATM   12  O   UNL     1       0.805  -1.684   2.185  1.00  0.00    -0.400 OA
HETATM   13  H   UNL     1       0.408  -1.919   3.042  1.00  0.00     0.209 HD
ENDBRANCH  11  12
ENDBRANCH  10  11
ENDBRANCH   9  10
BRANCH   9  14
HETATM   14  C   UNL     1       5.056  -0.191   0.195  1.00  0.00     0.123 C 
BRANCH  14  15
HETATM   15  C   UNL     1       4.899   1.228  -0.277  1.00  0.00    -0.022 C 
HETATM   16  C   UNL     1       4.127   2.209   0.213  1.00  0.00     0.008 C 
ENDBRANCH  14  15
ENDBRANCH   9  14
ENDBRANCH   1   9
BRANCH   3  17
HETATM   17  N   UNL     1       7.627  -0.885   4.839  1.00  0.00    -0.363 N 
HETATM   18  C   UNL     1       8.506   0.219   4.432  1.00  0.00     0.150 C 
HETATM   19  C   UNL     1       9.972  -0.241   4.391  1.00  0.00     0.187 C 
HETATM   20  O   UNL     1      10.375  -0.840   5.631  1.00  0.00    -0.388 OA
HETATM   21  C   UNL     1       9.567  -1.997   5.905  1.00  0.00     0.187 C 
HETATM   22  C   UNL     1       8.082  -1.631   6.020  1.00  0.00     0.150 C 
ENDBRANCH   3  17
TORSDOF 7
