REMARK  6 active torsions:
REMARK  status: ('A' for Active; 'I' for Inactive)
REMARK       I    between atoms: N_1  and  C_2 
REMARK    1  A    between atoms: C_2  and  C_4 
REMARK    2  A    between atoms: C_4  and  C_5 
REMARK    3  A    between atoms: N_14  and  C_15 
REMARK    4  A    between atoms: C_15  and  C_16 
REMARK    5  A    between atoms: C_16  and  O_17 
REMARK    6  A    between atoms: C_16  and  C_18 
ROOT
HETATM    1  C   UNL     1       4.750   0.429  -0.914  1.00  0.00     0.093 A 
HETATM    2  N   UNL     1       5.523   1.494  -0.783  1.00  0.00    -0.344 N 
ATOM      3  HN  UNL     1       5.233   2.471  -0.825  1.00  0.00     0.167 HD
HETATM    4  C   UNL     1       6.790   1.020  -0.579  1.00  0.00     0.060 A 
HETATM    5  C   UNL     1       7.979   1.736  -0.374  1.00  0.00     0.032 A 
HETATM    6  C   UNL     1       9.169   1.026  -0.186  1.00  0.00     0.002 A 
HETATM    7  C   UNL     1       9.172  -0.369  -0.199  1.00  0.00     0.002 A 
HETATM    8  C   UNL     1       7.993  -1.098  -0.397  1.00  0.00     0.032 A 
HETATM    9  C   UNL     1       6.810  -0.370  -0.587  1.00  0.00     0.062 A 
HETATM   10  N   UNL     1       5.495  -0.728  -0.806  1.00  0.00    -0.332 N 
ENDROOT
BRANCH  10  11
HETATM   11  C   UNL     1       4.981  -2.092  -0.823  1.00  0.00     0.167 C 
BRANCH  11  12
HETATM   12  C   UNL     1       4.835  -2.669  -2.245  1.00  0.00     0.172 C 
BRANCH  12  13
HETATM   13  O   UNL     1       6.117  -2.781  -2.878  1.00  0.00    -0.389 OA
HETATM   14  H   UNL     1       6.749  -3.146  -2.238  1.00  0.00     0.210 HD
ENDBRANCH  12  13
BRANCH  12  15
HETATM   15  C   UNL     1       4.157  -4.020  -2.383  1.00  0.00     0.013 A 
HETATM   16  C   UNL     1       4.053  -4.593  -3.667  1.00  0.00     0.055 A 
HETATM   17  C   UNL     1       3.417  -5.818  -3.854  1.00  0.00     0.117 A 
HETATM   18  F   UNL     1       3.338  -6.341  -5.085  1.00  0.00    -0.206 F 
HETATM   19  C   UNL     1       2.861  -6.506  -2.784  1.00  0.00     0.045 A 
HETATM   20  C   UNL     1       2.950  -5.959  -1.507  1.00  0.00     0.046 A 
HETATM   21  C   UNL     1       3.593  -4.733  -1.317  1.00  0.00     0.125 A 
HETATM   22  F   UNL     1       3.659  -4.261  -0.066  1.00  0.00    -0.205 F 
ENDBRANCH  12  15
ENDBRANCH  11  12
ENDBRANCH  10  11
BRANCH   1  23
HETATM   23  C   UNL     1       3.273   0.495  -1.150  1.00  0.00     0.179 C 
BRANCH  23  24
HETATM   24  C   UNL     1       2.957   1.133  -2.491  1.00  0.00     0.222 C 
HETATM   25  N   UNL     1       3.694   2.221  -2.853  1.00  0.00    -0.370 N 
HETATM   26  H   UNL     1       3.552   2.622  -3.768  1.00  0.00     0.159 HD
HETATM   27  H   UNL     1       4.558   2.434  -2.355  1.00  0.00     0.159 HD
HETATM   28  O   UNL     1       2.029   0.743  -3.197  1.00  0.00    -0.273 OA
ENDBRANCH  23  24
ENDBRANCH   1  23
TORSDOF 6
