REMARK  4 active torsions:
REMARK  status: ('A' for Active; 'I' for Inactive)
REMARK    1  A    between atoms: N_11  and  C_12 
REMARK    2  A    between atoms: C_12  and  C_13 
REMARK    3  A    between atoms: C_13  and  O_14 
REMARK    4  A    between atoms: C_13  and  C_15 
ROOT
HETATM    1  C   UNL     1       1.002   0.125   0.038  1.00  0.00     0.164 C 
HETATM    2  N   UNL     1       2.449   0.045   0.055  1.00  0.00    -0.269 N 
HETATM    3  C   UNL     1       3.050  -1.231   0.060  1.00  0.00     0.332 A 
HETATM    4  O   UNL     1       2.370  -2.261   0.047  1.00  0.00    -0.246 OA
HETATM    5  N   UNL     1       4.446  -1.277   0.082  1.00  0.00    -0.287 N 
HETATM    6  C   UNL     1       5.143  -2.550   0.079  1.00  0.00     0.163 C 
HETATM    7  C   UNL     1       5.159  -0.103   0.093  1.00  0.00     0.145 A 
HETATM    8  N   UNL     1       6.517   0.016   0.122  1.00  0.00    -0.336 N 
ATOM      9  HN  UNL     1       7.209  -0.733   0.145  1.00  0.00     0.168 HD
HETATM   10  C   UNL     1       6.734   1.316   0.113  1.00  0.00     0.185 A 
HETATM   11  N   UNL     1       5.561   2.024   0.071  1.00  0.00    -0.333 N 
HETATM   12  C   UNL     1       4.544   1.111   0.074  1.00  0.00     0.149 A 
HETATM   13  C   UNL     1       3.132   1.266   0.043  1.00  0.00     0.282 A 
HETATM   14  O   UNL     1       2.580   2.365   0.010  1.00  0.00    -0.265 OA
ENDROOT
BRANCH  11  15
HETATM   15  C   UNL     1       5.434   3.467   0.087  1.00  0.00     0.167 C 
BRANCH  15  16
HETATM   16  C   UNL     1       5.311   4.079  -1.320  1.00  0.00     0.169 C 
BRANCH  16  17
HETATM   17  O   UNL     1       4.205   3.560  -2.056  1.00  0.00    -0.389 OA
HETATM   18  H   UNL     1       3.396   3.675  -1.520  1.00  0.00     0.210 HD
ENDBRANCH  16  17
BRANCH  16  19
HETATM   19  C   UNL     1       5.173   5.587  -1.260  1.00  0.00    -0.028 A 
HETATM   20  C   UNL     1       6.111   6.406  -1.910  1.00  0.00     0.013 A 
HETATM   21  C   UNL     1       5.999   7.796  -1.848  1.00  0.00     0.043 A 
HETATM   22  C   UNL     1       4.948   8.370  -1.144  1.00  0.00     0.116 A 
HETATM   23  F   UNL     1       4.848   9.704  -1.080  1.00  0.00    -0.206 F 
HETATM   24  C   UNL     1       3.998   7.582  -0.509  1.00  0.00     0.043 A 
HETATM   25  C   UNL     1       4.108   6.194  -0.568  1.00  0.00     0.013 A 
ENDBRANCH  16  19
ENDBRANCH  15  16
ENDBRANCH  11  15
TORSDOF 4
