REMARK  4 active torsions:
REMARK  status: ('A' for Active; 'I' for Inactive)
REMARK    1  A    between atoms: C_3  and  N_4 
REMARK    2  A    between atoms: C_5  and  N_10 
REMARK    3  A    between atoms: C_9  and  C_15 
REMARK    4  A    between atoms: O_13  and  C_15 
ROOT
HETATM    1  N   UNL     1      -1.042  -0.803   0.491  1.00  0.00    -0.319 N 
ATOM      2  HN  UNL     1      -1.911  -1.318   0.632  1.00  0.00     0.170 HD
HETATM    3  C   UNL     1       0.082  -1.432   0.098  1.00  0.00     0.107 A 
HETATM    4  C   UNL     1      -0.984   0.522   0.692  1.00  0.00     0.156 A 
HETATM    5  N   UNL     1       0.108   1.277   0.580  1.00  0.00    -0.343 N 
ATOM      6  HN  UNL     1       0.102   2.275   0.789  1.00  0.00     0.167 HD
HETATM    7  C   UNL     1       1.249  -0.705  -0.086  1.00  0.00     0.065 A 
HETATM    8  C   UNL     1       1.213   0.641   0.175  1.00  0.00     0.094 A 
ENDROOT
BRANCH   3   9
HETATM    9  N   UNL     1       0.062  -2.795  -0.193  1.00  0.00    -0.360 N 
HETATM   10  C   UNL     1      -1.154  -3.598   0.061  1.00  0.00     0.109 C 
HETATM   11  C   UNL     1      -0.654  -5.065  -0.045  1.00  0.00     0.029 C 
HETATM   12  C   UNL     1       0.847  -4.973  -0.291  1.00  0.00     0.022 C 
HETATM   13  C   UNL     1       1.214  -3.594   0.222  1.00  0.00     0.125 C 
BRANCH  10  14
HETATM   14  C   UNL     1      -2.307  -3.345  -0.918  1.00  0.00     0.189 C 
BRANCH  14  15
HETATM   15  O   UNL     1      -3.412  -4.198  -0.594  1.00  0.00    -0.399 OA
HETATM   16  H   UNL     1      -4.182  -3.850  -1.074  1.00  0.00     0.209 HD
ENDBRANCH  14  15
ENDBRANCH  10  14
ENDBRANCH   3   9
BRANCH   4  17
HETATM   17  N   UNL     1      -2.132   1.174   1.098  1.00  0.00    -0.274 NA
HETATM   18  H   UNL     1      -2.730   0.528   1.590  1.00  0.00     0.127 HD
HETATM   19  H   UNL     1      -1.870   2.024   1.579  1.00  0.00     0.127 HD
ENDBRANCH   4  17
TORSDOF 4
