REMARK  3 active torsions:
REMARK  status: ('A' for Active; 'I' for Inactive)
REMARK    1  A    between atoms: C_5  and  C_6 
REMARK    2  A    between atoms: C_6  and  N_7 
REMARK       I    between atoms: N_7  and  C_8 
REMARK       I    between atoms: C_8  and  N_10 
REMARK    3  A    between atoms: N_10  and  C_11 
ROOT
HETATM    1  N   UNL     1       5.298   0.209  -3.862  1.00  0.00    -0.342 N 
HETATM    2  C   UNL     1       6.129   1.182  -3.355  1.00  0.00     0.320 C 
HETATM    3  O   UNL     1       6.388   1.260  -2.161  1.00  0.00    -0.247 OA
HETATM    4  N   UNL     1       6.573   2.052  -4.327  1.00  0.00    -0.309 N 
HETATM    5  H   UNL     1       5.415  -0.045  -4.832  1.00  0.00     0.164 HD
HETATM    6  H   UNL     1       6.026   2.085  -5.174  1.00  0.00     0.170 HD
ENDROOT
BRANCH   1   7
HETATM    7  C   UNL     1       4.738  -0.785  -2.962  1.00  0.00     0.129 C 
BRANCH   7   8
HETATM    8  C   UNL     1       3.205  -0.705  -2.865  1.00  0.00     0.007 C 
HETATM    9  C   UNL     1       2.686   0.684  -2.458  1.00  0.00     0.036 C 
HETATM   10  C   UNL     1       2.966   1.008  -0.987  1.00  0.00     0.272 C 
HETATM   11  N   UNL     1       2.470  -0.011  -0.052  1.00  0.00     0.084 N 
HETATM   12  C   UNL     1       1.020   0.035   0.104  1.00  0.00     0.309 C 
HETATM   13  C   UNL     1       2.953  -1.349  -0.405  1.00  0.00     0.272 C 
HETATM   14  C   UNL     1       2.682  -1.749  -1.862  1.00  0.00     0.036 C 
ENDBRANCH   7   8
ENDBRANCH   1   7
BRANCH   4  15
HETATM   15  C   UNL     1       7.488   3.107  -4.097  1.00  0.00     0.038 A 
HETATM   16  C   UNL     1       8.316   3.161  -2.976  1.00  0.00     0.046 A 
HETATM   17  C   UNL     1       9.149   4.253  -2.812  1.00  0.00     0.090 A 
HETATM   18  N   UNL     1       9.226   5.273  -3.689  1.00  0.00    -0.375 N 
HETATM   19  C   UNL     1       8.436   5.190  -4.779  1.00  0.00     0.090 A 
ATOM     20  HN  UNL     1       9.849   6.066  -3.537  1.00  0.00     0.164 HD
HETATM   21  C   UNL     1       7.568   4.137  -5.032  1.00  0.00     0.046 A 
ENDBRANCH   4  15
TORSDOF 3
