REMARK  5 active torsions:
REMARK  status: ('A' for Active; 'I' for Inactive)
REMARK    1  A    between atoms: C_2  and  C_4 
REMARK    2  A    between atoms: C_8  and  C_9 
REMARK    3  A    between atoms: C_9  and  N_10 
REMARK       I    between atoms: N_10  and  C_11 
REMARK    4  A    between atoms: C_11  and  C_13 
REMARK    5  A    between atoms: C_13  and  C_14 
ROOT
HETATM    1  N   UNL     1       1.328   1.702   1.792  1.00  0.00    -0.360 N 
HETATM    2  C   UNL     1       0.316   2.245   2.561  1.00  0.00     0.222 C 
HETATM    3  O   UNL     1       0.129   3.456   2.658  1.00  0.00    -0.273 OA
HETATM    4  H   UNL     1       1.504   0.708   1.861  1.00  0.00     0.162 HD
ENDROOT
BRANCH   2   5
HETATM    5  C   UNL     1      -0.582   1.230   3.252  1.00  0.00     0.145 C 
BRANCH   5   6
HETATM    6  C   UNL     1      -0.087   0.835   4.607  1.00  0.00    -0.002 A 
HETATM    7  C   UNL     1       0.124   1.674   5.739  1.00  0.00     0.030 A 
HETATM    8  C   UNL     1      -0.095   3.137   5.879  1.00  0.00     0.070 C 
HETATM    9  N   UNL     1       0.576   0.983   6.789  1.00  0.00    -0.303 N 
HETATM   10  N   UNL     1       0.636  -0.285   6.360  1.00  0.00    -0.300 N 
ATOM     11  HN  UNL     1       0.821   1.341   7.712  1.00  0.00     0.186 HD
HETATM   12  C   UNL     1       1.133  -1.299   7.260  1.00  0.00     0.177 C 
HETATM   13  C   UNL     1       0.201  -0.444   5.068  1.00  0.00     0.033 A 
HETATM   14  C   UNL     1       0.074  -1.764   4.399  1.00  0.00     0.070 C 
ENDBRANCH   5   6
ENDBRANCH   2   5
BRANCH   1  15
HETATM   15  C   UNL     1       2.310   2.533   1.111  1.00  0.00     0.130 C 
BRANCH  15  16
HETATM   16  C   UNL     1       2.286   2.339  -0.416  1.00  0.00     0.035 C 
HETATM   17  C   UNL     1       3.214   3.302  -1.175  1.00  0.00     0.130 C 
HETATM   18  O   UNL     1       2.485   4.543  -1.240  1.00  0.00    -0.385 OA
HETATM   19  C   UNL     1       1.080   4.250  -1.146  1.00  0.00     0.168 C 
HETATM   20  C   UNL     1       0.951   2.745  -1.024  1.00  0.00     0.035 C 
BRANCH  17  21
HETATM   21  C   UNL     1       4.626   3.532  -0.605  1.00  0.00     0.007 C 
HETATM   22  C   UNL     1       5.446   2.240  -0.604  1.00  0.00     0.012 C 
HETATM   23  C   UNL     1       5.383   4.611  -1.388  1.00  0.00     0.012 C 
ENDBRANCH  17  21
ENDBRANCH  15  16
ENDBRANCH   1  15
TORSDOF 5
