REMARK  7 active torsions:
REMARK  status: ('A' for Active; 'I' for Inactive)
REMARK    1  A    between atoms: C_2  and  C_3 
REMARK    2  A    between atoms: C_2  and  C_18 
REMARK    3  A    between atoms: C_3  and  N_4 
REMARK       I    between atoms: N_4  and  C_5 
REMARK    4  A    between atoms: C_5  and  C_7 
REMARK    5  A    between atoms: C_7  and  C_8 
REMARK    6  A    between atoms: C_11  and  C_14 
REMARK    7  A    between atoms: C_18  and  O_20 
ROOT
HETATM    1  N   UNL     1       3.880  -0.741   2.905  1.00  0.00    -0.360 N 
HETATM    2  C   UNL     1       3.121  -1.794   3.382  1.00  0.00     0.223 C 
HETATM    3  O   UNL     1       3.005  -2.847   2.758  1.00  0.00    -0.273 OA
HETATM    4  H   UNL     1       3.728   0.170   3.319  1.00  0.00     0.162 HD
ENDROOT
BRANCH   2   5
HETATM    5  C   UNL     1       2.447  -1.546   4.723  1.00  0.00     0.160 C 
BRANCH   5   6
HETATM    6  C   UNL     1       2.877  -2.515   5.779  1.00  0.00     0.025 A 
HETATM    7  C   UNL     1       3.208  -3.847   5.619  1.00  0.00     0.077 A 
HETATM    8  S   UNL     1       3.607  -4.552   7.119  1.00  0.00    -0.086 SA
HETATM    9  C   UNL     1       3.267  -3.055   7.913  1.00  0.00     0.058 A 
HETATM   10  N   UNL     1       2.918  -2.075   7.099  1.00  0.00    -0.356 N 
ATOM     11  HN  UNL     1       2.707  -1.123   7.398  1.00  0.00     0.166 HD
BRANCH   9  12
HETATM   12  C   UNL     1       3.360  -2.932   9.433  1.00  0.00    -0.002 C 
HETATM   13  C   UNL     1       4.796  -3.211   9.915  1.00  0.00     0.021 C 
HETATM   14  C   UNL     1       2.977  -1.505   9.875  1.00  0.00     0.021 C 
HETATM   15  C   UNL     1       2.386  -3.915  10.113  1.00  0.00     0.021 C 
ENDBRANCH   9  12
ENDBRANCH   5   6
ENDBRANCH   2   5
BRANCH   1  16
HETATM   16  C   UNL     1       4.513  -0.839   1.600  1.00  0.00     0.137 C 
BRANCH  16  17
HETATM   17  C   UNL     1       5.319   0.404   1.231  1.00  0.00     0.097 C 
HETATM   18  C   UNL     1       4.429   1.638   1.069  1.00  0.00     0.022 C 
BRANCH  17  19
HETATM   19  C   UNL     1       6.044   0.124  -0.069  1.00  0.00     0.145 C 
HETATM   20  O   UNL     1       5.582   0.336  -1.178  1.00  0.00    -0.650 OA
BRANCH  19  21
HETATM   21  O   UNL     1       7.272  -0.416   0.102  1.00  0.00    -0.776 OA
HETATM   22  H   UNL     1       7.540  -0.557   1.030  1.00  0.00     0.167 HD
ENDBRANCH  19  21
ENDBRANCH  17  19
ENDBRANCH  16  17
ENDBRANCH   1  16
TORSDOF 7
