REMARK  5 active torsions:
REMARK  status: ('A' for Active; 'I' for Inactive)
REMARK    1  A    between atoms: N_6  and  C_7 
REMARK    2  A    between atoms: C_7  and  C_8 
REMARK    3  A    between atoms: C_8  and  N_9 
REMARK       I    between atoms: N_9  and  C_10 
REMARK       I    between atoms: C_10  and  N_12 
REMARK    4  A    between atoms: N_12  and  C_13 
REMARK    5  A    between atoms: C_16  and  N_20 
ROOT
HETATM    1  N   UNL     1       2.935  -4.892  -4.046  1.00  0.00    -0.341 N 
HETATM    2  C   UNL     1       2.592  -5.213  -5.341  1.00  0.00     0.320 C 
HETATM    3  O   UNL     1       1.952  -4.444  -6.048  1.00  0.00    -0.247 OA
HETATM    4  N   UNL     1       3.040  -6.469  -5.702  1.00  0.00    -0.308 N 
HETATM    5  H   UNL     1       3.788  -5.312  -3.709  1.00  0.00     0.164 HD
HETATM    6  H   UNL     1       3.200  -7.117  -4.946  1.00  0.00     0.170 HD
ENDROOT
BRANCH   4   7
HETATM    7  C   UNL     1       2.915  -6.996  -7.007  1.00  0.00     0.051 A 
HETATM    8  C   UNL     1       2.734  -6.187  -8.115  1.00  0.00     0.035 A 
HETATM    9  C   UNL     1       2.508  -6.759  -9.359  1.00  0.00     0.051 A 
HETATM   10  C   UNL     1       2.491  -8.142  -9.510  1.00  0.00     0.103 A 
HETATM   11  N   UNL     1       2.780  -8.948  -8.465  1.00  0.00    -0.350 N 
HETATM   12  C   UNL     1       2.967  -8.367  -7.245  1.00  0.00     0.119 A 
ATOM     13  HN  UNL     1       2.856  -9.958  -8.584  1.00  0.00     0.166 HD
BRANCH  10  14
HETATM   14  N   UNL     1       2.222  -8.675 -10.745  1.00  0.00    -0.363 N 
HETATM   15  C   UNL     1       2.772  -9.952 -11.179  1.00  0.00     0.150 C 
HETATM   16  C   UNL     1       3.250  -9.767 -12.637  1.00  0.00     0.187 C 
HETATM   17  O   UNL     1       2.201  -9.277 -13.500  1.00  0.00    -0.388 OA
HETATM   18  C   UNL     1       1.681  -8.023 -13.016  1.00  0.00     0.187 C 
HETATM   19  C   UNL     1       1.139  -8.166 -11.588  1.00  0.00     0.150 C 
ENDBRANCH  10  14
ENDBRANCH   4   7
BRANCH   1  20
HETATM   20  C   UNL     1       2.639  -3.548  -3.567  1.00  0.00     0.154 C 
BRANCH  20  21
HETATM   21  C   UNL     1       1.190  -3.389  -3.053  1.00  0.00     0.292 C 
BRANCH  21  22
HETATM   22  N   UNL     1       0.838  -2.006  -2.661  1.00  0.00     0.090 N 
HETATM   23  C   UNL     1       1.697  -1.487  -1.590  1.00  0.00     0.272 C 
HETATM   24  C   UNL     1       1.341  -0.049  -1.214  1.00  0.00     0.031 C 
HETATM   25  C   UNL     1      -0.132   0.085  -0.847  1.00  0.00     0.007 C 
HETATM   26  C   UNL     1      -1.035  -0.505  -1.935  1.00  0.00     0.010 C 
HETATM   27  C   UNL     1      -1.072   0.386  -3.182  1.00  0.00     0.011 C 
HETATM   28  C   UNL     1      -0.585  -1.939  -2.273  1.00  0.00     0.276 C 
ENDBRANCH  21  22
ENDBRANCH  20  21
ENDBRANCH   1  20
TORSDOF 5
