REMARK  10 active torsions:
REMARK  status: ('A' for Active; 'I' for Inactive)
REMARK    1  A    between atoms: N_1  and  C_8 
REMARK    2  A    between atoms: C_7  and  N_18 
REMARK    3  A    between atoms: C_13  and  C_22 
REMARK    4  A    between atoms: C_13  and  C_23 
REMARK       I    between atoms: C_14  and  N_20 
REMARK    5  A    between atoms: C_14  and  C_21 
REMARK    6  A    between atoms: N_18  and  C_27 
REMARK    7  A    between atoms: N_20  and  C_24 
REMARK    8  A    between atoms: C_22  and  O_25 
REMARK    9  A    between atoms: C_23  and  O_26 
REMARK   10  A    between atoms: C_24  and  C_27 
ROOT
HETATM    1  N   UNL     1       1.449   1.331  -0.005  1.00  0.00    -0.322 N 
HETATM    2  C   UNL     1       0.293  -0.523  -0.003  1.00  0.00     0.122 A 
HETATM    3  C   UNL     1       0.153   0.871  -0.000  1.00  0.00     0.140 A 
HETATM    4  N   UNL     1       1.629  -0.886   0.011  1.00  0.00    -0.346 N 
ATOM      5  HN  UNL     1       2.017  -1.829   0.014  1.00  0.00     0.167 HD
HETATM    6  C   UNL     1       2.284   0.243   0.020  1.00  0.00     0.185 A 
HETATM    7  C   UNL     1      -0.873  -1.338  -0.046  1.00  0.00     0.135 A 
HETATM    8  N   UNL     1      -1.008   1.543  -0.025  1.00  0.00    -0.336 N 
ATOM      9  HN  UNL     1      -1.090   2.560  -0.013  1.00  0.00     0.168 HD
HETATM   10  N   UNL     1      -2.060  -0.671  -0.100  1.00  0.00    -0.337 N 
ATOM     11  HN  UNL     1      -2.939  -1.184  -0.163  1.00  0.00     0.168 HD
HETATM   12  C   UNL     1      -2.056   0.688  -0.069  1.00  0.00     0.183 A 
ENDROOT
BRANCH   7  13
HETATM   13  N   UNL     1      -0.823  -2.725  -0.075  1.00  0.00    -0.368 N 
HETATM   14  C   UNL     1       0.222  -3.394   0.699  1.00  0.00     0.151 C 
BRANCH  13  15
HETATM   15  C   UNL     1      -1.920  -3.590  -0.531  1.00  0.00     0.143 C 
BRANCH  15  16
HETATM   16  C   UNL     1      -2.589  -3.154  -1.846  1.00  0.00     0.142 C 
BRANCH  16  17
HETATM   17  N   UNL     1      -3.467  -4.162  -2.447  1.00  0.00    -0.359 N 
HETATM   18  C   UNL     1      -2.961  -5.269  -3.097  1.00  0.00     0.221 C 
HETATM   19  O   UNL     1      -1.771  -5.564  -3.061  1.00  0.00    -0.273 OA
HETATM   20  H   UNL     1      -4.441  -3.922  -2.571  1.00  0.00     0.162 HD
BRANCH  18  21
HETATM   21  C   UNL     1      -3.995  -6.092  -3.868  1.00  0.00     0.070 C 
HETATM   22  C   UNL     1      -4.540  -5.298  -5.054  1.00  0.00     0.019 C 
HETATM   23  C   UNL     1      -3.380  -7.402  -4.366  1.00  0.00     0.019 C 
ENDBRANCH  18  21
ENDBRANCH  16  17
ENDBRANCH  15  16
ENDBRANCH  13  15
ENDBRANCH   7  13
BRANCH   1  24
HETATM   24  C   UNL     1       2.040   2.636  -0.086  1.00  0.00     0.094 C 
HETATM   25  C   UNL     1       2.246   3.285   1.319  1.00  0.00     0.039 C 
HETATM   26  C   UNL     1       2.239   4.664   0.574  1.00  0.00     0.006 C 
HETATM   27  C   UNL     1       1.273   3.918  -0.448  1.00  0.00     0.039 C 
BRANCH  26  28
HETATM   28  C   UNL     1       1.609   5.805   1.374  1.00  0.00     0.175 C 
BRANCH  28  29
HETATM   29  O   UNL     1       1.294   6.892   0.509  1.00  0.00    -0.400 OA
HETATM   30  H   UNL     1       2.116   7.121   0.027  1.00  0.00     0.209 HD
ENDBRANCH  28  29
ENDBRANCH  26  28
BRANCH  26  31
HETATM   31  C   UNL     1       3.653   5.060   0.101  1.00  0.00     0.175 C 
BRANCH  31  32
HETATM   32  O   UNL     1       3.561   6.037  -0.929  1.00  0.00    -0.400 OA
HETATM   33  H   UNL     1       3.369   5.564  -1.760  1.00  0.00     0.209 HD
ENDBRANCH  31  32
ENDBRANCH  26  31
ENDBRANCH   1  24
TORSDOF 10
