REMARK  5 active torsions:
REMARK  status: ('A' for Active; 'I' for Inactive)
REMARK    1  A    between atoms: C_2  and  C_3 
REMARK    2  A    between atoms: C_2  and  C_15 
REMARK    3  A    between atoms: C_3  and  N_4 
REMARK       I    between atoms: N_4  and  C_5 
REMARK       I    between atoms: C_5  and  N_7 
REMARK    4  A    between atoms: N_7  and  C_8 
REMARK    5  A    between atoms: C_15  and  N_16 
ROOT
HETATM    1  N   UNL     1       2.578   2.343  -1.016  1.00  0.00    -0.342 N 
HETATM    2  C   UNL     1       2.950   3.673  -0.896  1.00  0.00     0.322 C 
HETATM    3  O   UNL     1       3.574   4.083   0.075  1.00  0.00    -0.247 OA
HETATM    4  N   UNL     1       2.507   4.424  -1.954  1.00  0.00    -0.288 N 
HETATM    5  H   UNL     1       2.585   1.989  -1.960  1.00  0.00     0.164 HD
HETATM    6  H   UNL     1       1.650   4.134  -2.396  1.00  0.00     0.172 HD
ENDROOT
BRANCH   1   7
HETATM    7  C   UNL     1       3.052   1.435   0.023  1.00  0.00     0.130 C 
BRANCH   7   8
HETATM    8  C   UNL     1       2.547  -0.005  -0.121  1.00  0.00     0.028 C 
HETATM    9  C   UNL     1       1.015  -0.068  -0.083  1.00  0.00     0.013 C 
BRANCH   8  10
HETATM   10  C   UNL     1       3.118  -0.897   1.008  1.00  0.00     0.278 C 
BRANCH  10  11
HETATM   11  N   UNL     1       4.582  -0.923   1.083  1.00  0.00     0.088 N 
HETATM   12  C   UNL     1       5.234  -1.437  -0.125  1.00  0.00     0.272 C 
HETATM   13  C   UNL     1       6.538  -2.070   0.348  1.00  0.00     0.032 C 
HETATM   14  C   UNL     1       6.532  -1.920   1.860  1.00  0.00     0.032 C 
HETATM   15  C   UNL     1       5.063  -1.747   2.195  1.00  0.00     0.272 C 
ENDBRANCH  10  11
ENDBRANCH   8  10
ENDBRANCH   7   8
ENDBRANCH   1   7
BRANCH   4  16
HETATM   16  C   UNL     1       2.801   5.758  -2.104  1.00  0.00     0.168 A 
HETATM   17  N   UNL     1       2.060   6.590  -2.804  1.00  0.00    -0.279 N 
HETATM   18  N   UNL     1       2.562   7.881  -2.779  1.00  0.00    -0.303 N 
ATOM     19  HN  UNL     1       1.215   6.317  -3.306  1.00  0.00     0.189 HD
HETATM   20  C   UNL     1       3.691   7.949  -2.108  1.00  0.00     0.160 A 
ATOM     21  HN  UNL     1       2.112   8.680  -3.226  1.00  0.00     0.186 HD
HETATM   22  S   UNL     1       4.241   6.452  -1.490  1.00  0.00    -0.046 SA
ENDBRANCH   4  16
TORSDOF 5
