REMARK  3 active torsions:
REMARK  status: ('A' for Active; 'I' for Inactive)
REMARK       I    between atoms: C_2  and  N_3 
REMARK       I    between atoms: C_2  and  N_7 
REMARK    1  A    between atoms: N_3  and  C_4 
REMARK    2  A    between atoms: N_7  and  C_8 
REMARK    3  A    between atoms: C_12  and  N_13 
ROOT
HETATM    1  C   UNL     1       4.394  -0.646   0.887  1.00  0.00     0.109 C 
HETATM    2  C   UNL     1       4.899  -1.126   2.252  1.00  0.00     0.027 C 
HETATM    3  C   UNL     1       6.170  -0.324   2.539  1.00  0.00     0.004 C 
HETATM    4  C   UNL     1       6.359   0.626   1.356  1.00  0.00     0.028 C 
HETATM    5  C   UNL     1       4.969   0.776   0.727  1.00  0.00     0.113 C 
ENDROOT
BRANCH   1   6
HETATM    6  N   UNL     1       2.955  -0.773   0.746  1.00  0.00    -0.337 N 
HETATM    7  C   UNL     1       2.366  -1.017  -0.475  1.00  0.00     0.316 C 
HETATM    8  O   UNL     1       3.000  -1.183  -1.507  1.00  0.00    -0.247 OA
HETATM    9  N   UNL     1       0.997  -1.115  -0.368  1.00  0.00    -0.339 N 
HETATM   10  H   UNL     1       0.564  -0.715   0.449  1.00  0.00     0.164 HD
HETATM   11  H   UNL     1       2.368  -0.420   1.486  1.00  0.00     0.164 HD
BRANCH   9  12
HETATM   12  C   UNL     1       0.150  -1.438  -1.476  1.00  0.00     0.086 A 
HETATM   13  C   UNL     1      -1.332  -1.603  -1.264  1.00  0.00     0.027 A 
HETATM   14  C   UNL     1      -0.487  -2.797  -1.592  1.00  0.00     0.027 A 
ENDBRANCH   9  12
ENDBRANCH   1   6
BRANCH   5  15
HETATM   15  N   UNL     1       4.181   1.848   1.315  1.00  0.00    -0.345 N 
HETATM   16  C   UNL     1       3.798   2.019   2.618  1.00  0.00     0.109 A 
HETATM   17  C   UNL     1       3.065   3.182   2.634  1.00  0.00     0.106 A 
HETATM   18  N   UNL     1       2.994   3.727   1.383  1.00  0.00    -0.361 N 
HETATM   19  C   UNL     1       3.683   2.914   0.612  1.00  0.00     0.183 A 
ATOM     20  HN  UNL     1       2.510   4.581   1.106  1.00  0.00     0.166 HD
ENDBRANCH   5  15
TORSDOF 3
