REMARK  5 active torsions:
REMARK  status: ('A' for Active; 'I' for Inactive)
REMARK    1  A    between atoms: C_9  and  C_10 
REMARK    2  A    between atoms: C_10  and  C_11 
REMARK    3  A    between atoms: C_11  and  N_12 
REMARK       I    between atoms: N_12  and  C_13 
REMARK       I    between atoms: C_13  and  N_15 
REMARK    4  A    between atoms: C_18  and  C_19 
REMARK    5  A    between atoms: C_19  and  O_20 
ROOT
HETATM    1  N   UNL     1       1.567   4.622   0.188  1.00  0.00    -0.343 N 
HETATM    2  C   UNL     1       0.291   5.096  -0.038  1.00  0.00     0.318 C 
HETATM    3  O   UNL     1      -0.632   4.360  -0.369  1.00  0.00    -0.247 OA
HETATM    4  N   UNL     1       0.155   6.481   0.099  1.00  0.00    -0.334 N 
HETATM    5  C   UNL     1      -1.148   7.027  -0.287  1.00  0.00     0.128 C 
HETATM    6  C   UNL     1      -1.085   8.527  -0.567  1.00  0.00     0.027 C 
HETATM    7  C   UNL     1      -0.463   9.315   0.596  1.00  0.00     0.012 C 
HETATM    8  C   UNL     1       0.892   8.694   0.964  1.00  0.00     0.027 C 
HETATM    9  C   UNL     1       0.822   7.184   1.194  1.00  0.00     0.128 C 
HETATM   10  H   UNL     1       2.268   5.259  -0.162  1.00  0.00     0.164 HD
ENDROOT
BRANCH   1  11
HETATM   11  C   UNL     1       1.822   3.193   0.002  1.00  0.00     0.129 C 
BRANCH  11  12
HETATM   12  C   UNL     1       3.290   2.805   0.216  1.00  0.00     0.062 C 
BRANCH  12  13
HETATM   13  C   UNL     1       3.539   1.328   0.114  1.00  0.00    -0.009 A 
HETATM   14  C   UNL     1       3.891   0.574  -1.041  1.00  0.00     0.030 A 
HETATM   15  C   UNL     1       4.102   1.036  -2.436  1.00  0.00     0.070 C 
HETATM   16  N   UNL     1       4.056  -0.724  -0.760  1.00  0.00    -0.303 N 
HETATM   17  N   UNL     1       3.815  -0.815   0.555  1.00  0.00    -0.300 N 
ATOM     18  HN  UNL     1       4.308  -1.475  -1.402  1.00  0.00     0.186 HD
HETATM   19  C   UNL     1       3.914  -2.110   1.190  1.00  0.00     0.177 C 
HETATM   20  C   UNL     1       3.507   0.388   1.137  1.00  0.00     0.032 A 
HETATM   21  C   UNL     1       3.221   0.552   2.585  1.00  0.00     0.070 C 
ENDBRANCH  12  13
ENDBRANCH  11  12
ENDBRANCH   1  11
BRANCH   7  22
HETATM   22  C   UNL     1      -1.399   9.414   1.808  1.00  0.00     0.168 C 
BRANCH  22  23
HETATM   23  O   UNL     1      -2.606  10.078   1.452  1.00  0.00    -0.400 OA
HETATM   24  H   UNL     1      -2.378  10.986   1.185  1.00  0.00     0.209 HD
ENDBRANCH  22  23
ENDBRANCH   7  22
TORSDOF 5
