REMARK  3 active torsions:
REMARK  status: ('A' for Active; 'I' for Inactive)
REMARK       I    between atoms: C_2  and  N_4 
REMARK    1  A    between atoms: N_4  and  C_5 
REMARK    2  A    between atoms: C_5  and  C_6 
REMARK    3  A    between atoms: C_11  and  N_13 
ROOT
HETATM    1  C   UNL     1       5.195  -0.006  -2.659  1.00  0.00    -0.036 A 
HETATM    2  C   UNL     1       5.469   1.185  -3.322  1.00  0.00     0.026 A 
HETATM    3  C   UNL     1       5.833   1.115  -4.652  1.00  0.00     0.090 A 
HETATM    4  N   UNL     1       5.942  -0.041  -5.346  1.00  0.00    -0.352 N 
ATOM      5  HN  UNL     1       6.198  -0.031  -6.333  1.00  0.00     0.166 HD
HETATM    6  C   UNL     1       5.706  -1.209  -4.711  1.00  0.00     0.103 A 
HETATM    7  C   UNL     1       5.343  -1.209  -3.364  1.00  0.00     0.057 A 
ENDROOT
BRANCH   1   8
HETATM    8  C   UNL     1       4.750  -0.016  -1.226  1.00  0.00     0.161 C 
BRANCH   8   9
HETATM    9  N   UNL     1       5.873  -0.040  -0.322  1.00  0.00    -0.357 N 
HETATM   10  C   UNL     1       5.669  -0.066   1.037  1.00  0.00     0.213 C 
HETATM   11  C   UNL     1       6.941  -0.106   1.836  1.00  0.00     0.117 C 
HETATM   12  O   UNL     1       4.560  -0.055   1.558  1.00  0.00    -0.274 OA
HETATM   13  H   UNL     1       6.810  -0.102  -0.698  1.00  0.00     0.162 HD
ENDBRANCH   8   9
ENDBRANCH   1   8
BRANCH   6  14
HETATM   14  N   UNL     1       5.798  -2.377  -5.428  1.00  0.00    -0.363 N 
HETATM   15  C   UNL     1       6.208  -3.658  -4.854  1.00  0.00     0.150 C 
HETATM   16  C   UNL     1       7.401  -4.228  -5.641  1.00  0.00     0.187 C 
HETATM   17  O   UNL     1       7.124  -4.308  -7.048  1.00  0.00    -0.388 OA
HETATM   18  C   UNL     1       6.845  -2.996  -7.571  1.00  0.00     0.187 C 
HETATM   19  C   UNL     1       5.627  -2.365  -6.885  1.00  0.00     0.150 C 
ENDBRANCH   6  14
TORSDOF 3
