REMARK  4 active torsions:
REMARK  status: ('A' for Active; 'I' for Inactive)
REMARK    1  A    between atoms: O_2  and  C_3 
REMARK    2  A    between atoms: C_3  and  C_4 
REMARK    3  A    between atoms: C_4  and  N_5 
REMARK    4  A    between atoms: C_6  and  N_7 
ROOT
HETATM    1  N   UNL     1       4.872   1.899   1.889  1.00  0.00    -0.179 N 
HETATM    2  C   UNL     1       4.632   3.253   1.840  1.00  0.00     0.679 A 
HETATM    3  N   UNL     1       5.066   3.855   2.918  1.00  0.00    -0.190 N 
ATOM      4  HN  UNL     1       5.003   4.850   3.135  1.00  0.00     0.184 HD
HETATM    5  C   UNL     1       5.623   2.873   3.694  1.00  0.00     0.076 A 
HETATM    6  C   UNL     1       6.209   2.965   4.968  1.00  0.00     0.032 A 
HETATM    7  C   UNL     1       6.693   1.802   5.574  1.00  0.00     0.002 A 
HETATM    8  C   UNL     1       6.628   0.574   4.913  1.00  0.00     0.002 A 
HETATM    9  C   UNL     1       6.074   0.467   3.634  1.00  0.00     0.032 A 
HETATM   10  C   UNL     1       5.555   1.636   3.060  1.00  0.00     0.079 A 
ENDROOT
BRANCH   1  11
HETATM   11  C   UNL     1       4.418   0.896   0.950  1.00  0.00     0.174 C 
BRANCH  11  12
HETATM   12  C   UNL     1       3.409  -0.071   1.565  1.00  0.00     0.187 C 
BRANCH  12  13
HETATM   13  O   UNL     1       2.982  -1.007   0.572  1.00  0.00    -0.394 OA
HETATM   14  C   UNL     1       2.125  -1.993   1.137  1.00  0.00     0.201 C 
ENDBRANCH  12  13
ENDBRANCH  11  12
ENDBRANCH   1  11
BRANCH   2  15
HETATM   15  N   UNL     1       4.015   3.860   0.813  1.00  0.00    -0.234 N 
HETATM   16  H   UNL     1       4.115   3.505  -0.130  1.00  0.00     0.174 HD
HETATM   17  H   UNL     1       4.070   4.875   0.843  1.00  0.00     0.174 HD
ENDBRANCH   2  15
TORSDOF 4
