REMARK  2 active torsions:
REMARK  status: ('A' for Active; 'I' for Inactive)
REMARK       I    between atoms: C_2  and  N_3 
REMARK       I    between atoms: C_2  and  N_10 
REMARK    1  A    between atoms: N_3  and  C_4 
REMARK    2  A    between atoms: N_10  and  C_11 
ROOT
HETATM    1  O   UNL     1       1.963  -1.031   1.357  1.00  0.00    -0.247 OA
HETATM    2  C   UNL     1       2.757  -0.375   0.689  1.00  0.00     0.322 C 
HETATM    3  N   UNL     1       2.871   0.980   0.765  1.00  0.00    -0.338 N 
HETATM    4  N   UNL     1       3.605  -1.008  -0.178  1.00  0.00    -0.288 N 
HETATM    5  H   UNL     1       3.590   1.403   0.189  1.00  0.00     0.164 HD
HETATM    6  H   UNL     1       3.559  -2.015  -0.186  1.00  0.00     0.172 HD
ENDROOT
BRANCH   3   7
HETATM    7  C   UNL     1       2.074   1.876   1.587  1.00  0.00     0.086 C 
HETATM    8  C   UNL     1       0.594   1.876   1.186  1.00  0.00     0.025 C 
HETATM    9  C   UNL     1       0.391   2.404  -0.233  1.00  0.00     0.002 C 
HETATM   10  C   UNL     1       0.992   3.795  -0.411  1.00  0.00     0.000 C 
HETATM   11  C   UNL     1       2.444   3.878   0.055  1.00  0.00     0.002 C 
HETATM   12  C   UNL     1       2.639   3.301   1.463  1.00  0.00     0.025 C 
ENDBRANCH   3   7
BRANCH   4  13
HETATM   13  C   UNL     1       4.512  -0.381  -0.985  1.00  0.00     0.168 A 
HETATM   14  N   UNL     1       4.687   0.909  -1.167  1.00  0.00    -0.279 N 
HETATM   15  N   UNL     1       5.749   1.178  -2.008  1.00  0.00    -0.303 N 
ATOM     16  HN  UNL     1       4.106   1.628  -0.737  1.00  0.00     0.189 HD
HETATM   17  C   UNL     1       6.323   0.067  -2.418  1.00  0.00     0.160 A 
ATOM     18  HN  UNL     1       6.049   2.115  -2.276  1.00  0.00     0.186 HD
HETATM   19  S   UNL     1       5.592  -1.380  -1.843  1.00  0.00    -0.046 SA
ENDBRANCH   4  13
TORSDOF 2
