REMARK  5 active torsions:
REMARK  status: ('A' for Active; 'I' for Inactive)
REMARK    1  A    between atoms: C_2  and  O_3 
REMARK    2  A    between atoms: O_3  and  C_4 
REMARK    3  A    between atoms: C_4  and  C_5 
REMARK    4  A    between atoms: C_5  and  N_6 
REMARK    5  A    between atoms: C_7  and  N_19 
ROOT
HETATM    1  N   UNL     1       6.261   2.694  -0.466  1.00  0.00    -0.172 N 
HETATM    2  C   UNL     1       7.024   3.867  -0.495  1.00  0.00     0.685 A 
HETATM    3  N   UNL     1       8.312   3.583  -0.422  1.00  0.00    -0.174 N 
ATOM      4  HN  UNL     1       9.087   4.244  -0.368  1.00  0.00     0.186 HD
HETATM    5  C   UNL     1       8.388   2.225  -0.434  1.00  0.00     0.160 A 
HETATM    6  N   UNL     1       9.553   1.479  -0.415  1.00  0.00    -0.287 N 
HETATM    7  C   UNL     1      10.873   2.065  -0.398  1.00  0.00     0.163 C 
HETATM    8  C   UNL     1       9.472   0.093  -0.432  1.00  0.00     0.330 A 
HETATM    9  O   UNL     1      10.448  -0.656  -0.435  1.00  0.00    -0.246 OA
HETATM   10  N   UNL     1       8.217  -0.457  -0.450  1.00  0.00    -0.273 N 
HETATM   11  C   UNL     1       7.021   0.210  -0.510  1.00  0.00     0.280 A 
HETATM   12  O   UNL     1       5.988  -0.441  -0.590  1.00  0.00    -0.265 OA
HETATM   13  C   UNL     1       7.151   1.631  -0.474  1.00  0.00     0.164 A 
HETATM   14  H   UNL     1       8.169  -1.463  -0.479  1.00  0.00     0.173 HD
ENDROOT
BRANCH   2  15
HETATM   15  N   UNL     1       6.447   5.104  -0.503  1.00  0.00    -0.217 N 
HETATM   16  C   UNL     1       7.236   6.220   0.055  1.00  0.00     0.145 C 
HETATM   17  C   UNL     1       6.261   7.332   0.498  1.00  0.00     0.000 C 
HETATM   18  C   UNL     1       6.993   8.539   1.080  1.00  0.00     0.011 C 
HETATM   19  C   UNL     1       5.362   7.771  -0.671  1.00  0.00     0.011 C 
HETATM   20  C   UNL     1       4.664   6.563  -1.311  1.00  0.00     0.000 C 
HETATM   21  C   UNL     1       3.819   6.997  -2.504  1.00  0.00     0.011 C 
HETATM   22  C   UNL     1       5.704   5.505  -1.711  1.00  0.00     0.145 C 
ENDBRANCH   2  15
BRANCH   1  23
HETATM   23  C   UNL     1       4.801   2.686  -0.405  1.00  0.00     0.174 C 
BRANCH  23  24
HETATM   24  C   UNL     1       4.154   1.530   0.334  1.00  0.00     0.188 C 
BRANCH  24  25
HETATM   25  O   UNL     1       2.738   1.682   0.503  1.00  0.00    -0.390 OA
BRANCH  25  26
HETATM   26  C   UNL     1       2.225   0.472   1.082  1.00  0.00     0.163 C 
HETATM   27  C   UNL     1       0.714   0.478   1.073  1.00  0.00     0.033 C 
ENDBRANCH  25  26
ENDBRANCH  24  25
ENDBRANCH  23  24
ENDBRANCH   1  23
TORSDOF 5
