REMARK  5 active torsions:
REMARK  status: ('A' for Active; 'I' for Inactive)
REMARK    1  A    between atoms: C_2  and  C_3 
REMARK    2  A    between atoms: C_2  and  N_20 
REMARK    3  A    between atoms: C_3  and  N_4 
REMARK       I    between atoms: N_4  and  C_5 
REMARK       I    between atoms: C_5  and  N_7 
REMARK    4  A    between atoms: N_7  and  C_8 
REMARK    5  A    between atoms: C_14  and  N_15 
ROOT
HETATM    1  N   UNL     1       2.635   0.824   2.594  1.00  0.00    -0.341 N 
HETATM    2  C   UNL     1       3.254   0.562   3.794  1.00  0.00     0.320 C 
HETATM    3  O   UNL     1       4.373   0.075   3.868  1.00  0.00    -0.247 OA
HETATM    4  N   UNL     1       2.474   0.938   4.869  1.00  0.00    -0.306 N 
HETATM    5  H   UNL     1       1.630   0.731   2.625  1.00  0.00     0.164 HD
HETATM    6  H   UNL     1       2.080   1.869   4.794  1.00  0.00     0.171 HD
ENDROOT
BRANCH   4   7
HETATM    7  C   UNL     1       2.888   0.598   6.182  1.00  0.00     0.075 A 
HETATM    8  C   UNL     1       3.158  -0.739   6.488  1.00  0.00     0.034 A 
HETATM    9  C   UNL     1       3.560  -1.080   7.770  1.00  0.00     0.019 A 
HETATM   10  C   UNL     1       3.667  -0.066   8.699  1.00  0.00     0.089 A 
HETATM   11  N   UNL     1       3.380   1.231   8.443  1.00  0.00    -0.355 N 
HETATM   12  C   UNL     1       2.998   1.579   7.191  1.00  0.00     0.109 A 
ATOM     13  HN  UNL     1       3.450   1.934   9.179  1.00  0.00     0.166 HD
BRANCH  12  14
HETATM   14  N   UNL     1       2.759   2.940   6.894  1.00  0.00    -0.267 NA
HETATM   15  C   UNL     1       2.611   3.805   8.081  1.00  0.00     0.097 C 
HETATM   16  C   UNL     1       3.205   5.143   7.664  1.00  0.00     0.016 C 
HETATM   17  C   UNL     1       4.337   4.732   6.738  1.00  0.00     0.016 C 
HETATM   18  C   UNL     1       3.769   3.529   5.993  1.00  0.00     0.097 C 
ENDBRANCH  12  14
ENDBRANCH   4   7
BRANCH   1  19
HETATM   19  C   UNL     1       3.299   0.417   1.358  1.00  0.00     0.159 C 
BRANCH  19  20
HETATM   20  C   UNL     1       4.300   1.488   0.811  1.00  0.00     0.236 C 
HETATM   21  C   UNL     1       3.441   2.698   0.382  1.00  0.00     0.044 C 
BRANCH  20  22
HETATM   22  N   UNL     1       5.115   0.975  -0.329  1.00  0.00     0.098 N 
HETATM   23  C   UNL     1       6.010  -0.154   0.047  1.00  0.00     0.299 C 
HETATM   24  C   UNL     1       7.246   0.260   0.863  1.00  0.00     0.198 C 
HETATM   25  O   UNL     1       8.031   1.225   0.151  1.00  0.00    -0.388 OA
HETATM   26  C   UNL     1       7.240   2.376  -0.167  1.00  0.00     0.198 C 
HETATM   27  C   UNL     1       5.987   1.992  -0.975  1.00  0.00     0.299 C 
ENDBRANCH  20  22
ENDBRANCH  19  20
ENDBRANCH   1  19
TORSDOF 5
