REMARK  6 active torsions:
REMARK  status: ('A' for Active; 'I' for Inactive)
REMARK    1  A    between atoms: O_2  and  C_3 
REMARK    2  A    between atoms: C_3  and  C_4 
REMARK    3  A    between atoms: C_4  and  O_5 
REMARK    4  A    between atoms: O_5  and  C_6 
REMARK    5  A    between atoms: C_9  and  N_10 
REMARK       I    between atoms: N_10  and  C_11 
REMARK    6  A    between atoms: C_11  and  C_13 
ROOT
HETATM    1  C   UNL     1       6.333  -0.635   2.917  1.00  0.00     0.141 A 
HETATM    2  C   UNL     1       7.056   0.540   2.850  1.00  0.00     0.058 A 
HETATM    3  C   UNL     1       8.445   0.459   2.888  1.00  0.00     0.035 A 
HETATM    4  C   UNL     1       9.074  -0.785   2.950  1.00  0.00     0.050 A 
HETATM    5  C   UNL     1       8.249  -1.903   3.030  1.00  0.00     0.119 A 
HETATM    6  N   UNL     1       6.896  -1.859   3.012  1.00  0.00    -0.345 N 
ATOM      7  HN  UNL     1       6.331  -2.706   3.067  1.00  0.00     0.167 HD
ENDROOT
BRANCH   4   8
HETATM    8  N   UNL     1      10.480  -0.947   2.934  1.00  0.00    -0.326 N 
HETATM    9  C   UNL     1      11.363   0.014   2.475  1.00  0.00     0.228 C 
HETATM   10  O   UNL     1      11.025   1.055   1.922  1.00  0.00    -0.273 OA
HETATM   11  H   UNL     1      10.837  -1.879   3.098  1.00  0.00     0.169 HD
BRANCH   9  12
HETATM   12  C   UNL     1      12.837  -0.355   2.613  1.00  0.00     0.096 C 
HETATM   13  C   UNL     1      13.277  -0.676   4.044  1.00  0.00     0.025 C 
HETATM   14  C   UNL     1      13.194   0.541   4.959  1.00  0.00     0.103 C 
HETATM   15  C   UNL     1      13.744   1.819   4.362  1.00  0.00     0.217 C 
HETATM   16  O   UNL     1      14.068   2.777   5.058  1.00  0.00    -0.274 OA
HETATM   17  N   UNL     1      13.766   1.915   3.002  1.00  0.00    -0.360 N 
HETATM   18  C   UNL     1      13.708   0.791   2.093  1.00  0.00     0.136 C 
HETATM   19  H   UNL     1      14.067   2.816   2.649  1.00  0.00     0.162 HD
ENDBRANCH   9  12
ENDBRANCH   4   8
BRANCH   1  20
HETATM   20  O   UNL     1       4.961  -0.514   2.846  1.00  0.00    -0.334 OA
BRANCH  20  21
HETATM   21  C   UNL     1       4.300  -1.649   3.397  1.00  0.00     0.203 C 
BRANCH  21  22
HETATM   22  C   UNL     1       2.796  -1.433   3.313  1.00  0.00     0.193 C 
BRANCH  22  23
HETATM   23  O   UNL     1       2.141  -2.537   3.934  1.00  0.00    -0.394 OA
HETATM   24  C   UNL     1       0.728  -2.413   3.872  1.00  0.00     0.201 C 
ENDBRANCH  22  23
ENDBRANCH  21  22
ENDBRANCH  20  21
ENDBRANCH   1  20
TORSDOF 6
