REMARK  2 active torsions:
REMARK  status: ('A' for Active; 'I' for Inactive)
REMARK    1  A    between atoms: C_8  and  N_11 
REMARK    2  A    between atoms: C_16  and  C_17 
REMARK       I    between atoms: C_17  and  N_19 
ROOT
HETATM    1  N   UNL     1       5.099   2.481  -0.159  1.00  0.00    -0.200 N 
HETATM    2  C   UNL     1       5.021   3.598   0.783  1.00  0.00     0.168 C 
HETATM    3  C   UNL     1       5.188   4.912   0.003  1.00  0.00     0.188 C 
HETATM    4  O   UNL     1       6.414   4.930  -0.749  1.00  0.00    -0.387 OA
HETATM    5  C   UNL     1       6.433   3.833  -1.691  1.00  0.00     0.203 C 
HETATM    6  C   UNL     1       6.341   2.474  -0.965  1.00  0.00     0.217 C 
ENDROOT
BRANCH   1   7
HETATM    7  C   UNL     1       4.409   1.341   0.167  1.00  0.00     0.681 A 
HETATM    8  N   UNL     1       4.050   0.516  -0.822  1.00  0.00    -0.196 N 
HETATM    9  C   UNL     1       3.154  -0.457  -0.553  1.00  0.00     0.024 A 
ATOM     10  HN  UNL     1       4.444   0.619  -1.757  1.00  0.00     0.184 HD
HETATM   11  C   UNL     1       2.654  -0.667   0.713  1.00  0.00     0.050 A 
HETATM   12  C   UNL     1       2.655  -1.250  -1.721  1.00  0.00     0.068 C 
HETATM   13  C   UNL     1       3.120   0.176   1.695  1.00  0.00     0.024 A 
HETATM   14  C   UNL     1       2.653   0.054   3.113  1.00  0.00     0.068 C 
HETATM   15  N   UNL     1       3.985   1.177   1.429  1.00  0.00    -0.196 N 
ATOM     16  HN  UNL     1       4.310   1.796   2.172  1.00  0.00     0.184 HD
ENDBRANCH   1   7
BRANCH   6  17
HETATM   17  C   UNL     1       6.504   1.348  -1.995  1.00  0.00     0.241 C 
HETATM   18  O   UNL     1       6.285   1.462  -3.198  1.00  0.00    -0.271 OA
HETATM   19  N   UNL     1       7.021   0.177  -1.499  1.00  0.00    -0.368 N 
HETATM   20  H   UNL     1       6.844  -0.056  -0.531  1.00  0.00     0.159 HD
HETATM   21  H   UNL     1       7.015  -0.594  -2.154  1.00  0.00     0.159 HD
ENDBRANCH   6  17
TORSDOF 2
