REMARK  5 active torsions:
REMARK  status: ('A' for Active; 'I' for Inactive)
REMARK    1  A    between atoms: C_2  and  C_3 
REMARK    2  A    between atoms: C_3  and  C_4 
REMARK    3  A    between atoms: C_3  and  N_17 
REMARK    4  A    between atoms: C_4  and  N_5 
REMARK       I    between atoms: N_5  and  C_6 
REMARK       I    between atoms: C_6  and  N_8 
REMARK    5  A    between atoms: N_8  and  C_9 
ROOT
HETATM    1  N   UNL     1       2.777  -3.441  -1.384  1.00  0.00    -0.341 N 
HETATM    2  C   UNL     1       2.368  -4.201  -2.467  1.00  0.00     0.322 C 
HETATM    3  O   UNL     1       1.655  -3.729  -3.344  1.00  0.00    -0.247 OA
HETATM    4  N   UNL     1       2.811  -5.496  -2.385  1.00  0.00    -0.288 N 
HETATM    5  H   UNL     1       3.709  -3.619  -1.031  1.00  0.00     0.164 HD
HETATM    6  H   UNL     1       3.007  -5.859  -1.464  1.00  0.00     0.172 HD
ENDROOT
BRANCH   1   7
HETATM    7  C   UNL     1       2.361  -2.045  -1.344  1.00  0.00     0.160 C 
BRANCH   7   8
HETATM    8  C   UNL     1       2.879  -1.259  -0.110  1.00  0.00     0.240 C 
BRANCH   8   9
HETATM    9  C   UNL     1       2.306   0.186  -0.104  1.00  0.00     0.033 C 
HETATM   10  C   UNL     1       0.784   0.261  -0.100  1.00  0.00     0.007 C 
ENDBRANCH   8   9
BRANCH   8  11
HETATM   11  N   UNL     1       4.360  -1.324  -0.017  1.00  0.00     0.094 N 
HETATM   12  C   UNL     1       4.925  -0.771   1.222  1.00  0.00     0.273 C 
HETATM   13  C   UNL     1       6.280  -0.181   0.846  1.00  0.00     0.032 C 
HETATM   14  C   UNL     1       6.502  -0.598  -0.594  1.00  0.00     0.032 C 
HETATM   15  C   UNL     1       5.093  -0.731  -1.138  1.00  0.00     0.273 C 
ENDBRANCH   8  11
ENDBRANCH   7   8
ENDBRANCH   1   7
BRANCH   4  16
HETATM   16  C   UNL     1       2.568  -6.461  -3.336  1.00  0.00     0.169 A 
HETATM   17  N   UNL     1       2.636  -7.753  -3.092  1.00  0.00    -0.279 N 
HETATM   18  N   UNL     1       2.336  -8.513  -4.211  1.00  0.00    -0.296 N 
ATOM     19  HN  UNL     1       2.881  -8.149  -2.184  1.00  0.00     0.189 HD
HETATM   20  C   UNL     1       2.095  -7.763  -5.266  1.00  0.00     0.066 A 
ATOM     21  HN  UNL     1       2.305  -9.533  -4.217  1.00  0.00     0.187 HD
HETATM   22  C   UNL     1       1.731  -8.265  -6.616  1.00  0.00     0.078 C 
HETATM   23  S   UNL     1       2.253  -6.080  -4.973  1.00  0.00    -0.038 SA
ENDBRANCH   4  16
TORSDOF 5
