REMARK  2 active torsions:
REMARK  status: ('A' for Active; 'I' for Inactive)
REMARK    1  A    between atoms: C_5  and  N_6 
REMARK       I    between atoms: N_6  and  C_7 
REMARK       I    between atoms: C_7  and  N_9 
REMARK    2  A    between atoms: N_9  and  C_10 
ROOT
HETATM    1  N   UNL     1       7.553  -0.373  -2.042  1.00  0.00    -0.295 N 
HETATM    2  C   UNL     1       8.653   0.424  -2.200  1.00  0.00     0.322 C 
HETATM    3  O   UNL     1       9.364   0.288  -3.190  1.00  0.00    -0.247 OA
HETATM    4  N   UNL     1       8.903   1.321  -1.203  1.00  0.00    -0.338 N 
HETATM    5  H   UNL     1       7.426  -1.020  -2.808  1.00  0.00     0.172 HD
HETATM    6  H   UNL     1       8.216   1.341  -0.455  1.00  0.00     0.164 HD
ENDROOT
BRANCH   1   7
HETATM    7  C   UNL     1       6.712  -0.478  -0.931  1.00  0.00     0.108 A 
HETATM    8  C   UNL     1       5.700  -1.432  -0.948  1.00  0.00     0.050 A 
HETATM    9  C   UNL     1       4.890  -1.575   0.185  1.00  0.00     0.029 A 
HETATM   10  C   UNL     1       5.113  -0.769   1.291  1.00  0.00     0.049 A 
HETATM   11 CL   UNL     1       4.164  -0.926   2.710  1.00  0.00    -0.083 Cl
HETATM   12  C   UNL     1       6.129   0.163   1.220  1.00  0.00     0.113 A 
HETATM   13  N   UNL     1       6.920   0.327   0.135  1.00  0.00    -0.351 N 
ATOM     14  HN  UNL     1       7.652   1.037   0.122  1.00  0.00     0.166 HD
ENDBRANCH   1   7
BRANCH   4  15
HETATM   15  C   UNL     1      10.130   2.081  -1.074  1.00  0.00     0.086 C 
HETATM   16  C   UNL     1      10.500   2.247   0.410  1.00  0.00     0.025 C 
HETATM   17  C   UNL     1       9.829   3.434   1.097  1.00  0.00     0.002 C 
HETATM   18  C   UNL     1      10.058   4.714   0.309  1.00  0.00     0.000 C 
HETATM   19  C   UNL     1       9.468   4.581  -1.088  1.00  0.00     0.002 C 
HETATM   20  C   UNL     1      10.068   3.403  -1.855  1.00  0.00     0.025 C 
ENDBRANCH   4  15
TORSDOF 2
