REMARK  6 active torsions:
REMARK  status: ('A' for Active; 'I' for Inactive)
REMARK    1  A    between atoms: C_2  and  C_3 
REMARK    2  A    between atoms: C_3  and  C_4 
REMARK    3  A    between atoms: C_6  and  N_7 
REMARK       I    between atoms: N_7  and  C_8 
REMARK    4  A    between atoms: C_8  and  C_10 
REMARK    5  A    between atoms: C_10  and  C_11 
REMARK    6  A    between atoms: C_20  and  O_21 
ROOT
HETATM    1  N   UNL     1       3.694  -2.858   1.778  1.00  0.00    -0.355 N 
HETATM    2  C   UNL     1       3.348  -4.196   1.683  1.00  0.00     0.223 C 
HETATM    3  O   UNL     1       2.186  -4.591   1.680  1.00  0.00    -0.273 OA
HETATM    4  H   UNL     1       4.681  -2.631   1.723  1.00  0.00     0.162 HD
ENDROOT
BRANCH   1   5
HETATM    5  C   UNL     1       2.667  -1.801   1.808  1.00  0.00     0.101 C 
HETATM    6  C   UNL     1       3.056  -0.397   1.230  1.00  0.00     0.006 C 
HETATM    7  C   UNL     1       2.366   0.226   2.512  1.00  0.00     0.137 C 
HETATM    8  C   UNL     1       2.398  -1.172   3.190  1.00  0.00     0.035 C 
HETATM    9  C   UNL     1       3.371  -1.319   4.352  1.00  0.00     0.015 C 
BRANCH   6  10
HETATM   10  C   UNL     1       2.306  -0.129  -0.099  1.00  0.00     0.010 C 
HETATM   11  C   UNL     1       2.859  -0.939  -1.267  1.00  0.00     0.006 C 
ENDBRANCH   6  10
BRANCH   6  12
HETATM   12  C   UNL     1       4.567  -0.072   1.146  1.00  0.00     0.010 C 
HETATM   13  C   UNL     1       4.855   1.358   0.704  1.00  0.00     0.006 C 
ENDBRANCH   6  12
BRANCH   7  14
HETATM   14  O   UNL     1       1.047   0.797   2.324  1.00  0.00    -0.389 OA
HETATM   15  C   UNL     1       0.301   1.050   3.509  1.00  0.00     0.202 C 
ENDBRANCH   7  14
ENDBRANCH   1   5
BRANCH   2  16
HETATM   16  C   UNL     1       4.519  -5.146   1.576  1.00  0.00     0.161 C 
BRANCH  16  17
HETATM   17  C   UNL     1       4.836  -5.447   0.156  1.00  0.00     0.036 A 
HETATM   18  C   UNL     1       3.997  -6.026  -0.826  1.00  0.00     0.053 A 
HETATM   19  C   UNL     1       4.789  -6.163  -1.945  1.00  0.00     0.024 A 
HETATM   20  C   UNL     1       4.517  -6.738  -3.281  1.00  0.00     0.070 C 
HETATM   21  N   UNL     1       6.012  -5.655  -1.598  1.00  0.00    -0.305 N 
HETATM   22  N   UNL     1       6.066  -5.208  -0.331  1.00  0.00    -0.304 N 
HETATM   23  H   UNL     1       6.848  -5.586  -2.169  1.00  0.00     0.186 HD
ATOM     24  HN  UNL     1       6.859  -4.784   0.151  1.00  0.00     0.186 HD
ENDBRANCH  16  17
ENDBRANCH   2  16
TORSDOF 6
