REMARK  5 active torsions:
REMARK  status: ('A' for Active; 'I' for Inactive)
REMARK    1  A    between atoms: C_4  and  C_5 
REMARK    2  A    between atoms: C_5  and  C_6 
REMARK    3  A    between atoms: C_6  and  N_7 
REMARK       I    between atoms: N_7  and  C_8 
REMARK       I    between atoms: C_8  and  N_10 
REMARK    4  A    between atoms: C_13  and  C_14 
REMARK    5  A    between atoms: C_14  and  O_15 
ROOT
HETATM    1  N   UNL     1       6.653   3.764  -0.047  1.00  0.00    -0.343 N 
HETATM    2  C   UNL     1       6.593   5.136  -0.024  1.00  0.00     0.318 C 
HETATM    3  O   UNL     1       5.523   5.735   0.032  1.00  0.00    -0.247 OA
HETATM    4  N   UNL     1       7.823   5.773  -0.081  1.00  0.00    -0.334 N 
HETATM    5  C   UNL     1       7.864   7.226   0.098  1.00  0.00     0.128 C 
HETATM    6  C   UNL     1       8.695   7.907  -0.989  1.00  0.00     0.027 C 
HETATM    7  C   UNL     1      10.092   7.280  -1.142  1.00  0.00     0.012 C 
HETATM    8  C   UNL     1       9.946   5.767  -1.344  1.00  0.00     0.027 C 
HETATM    9  C   UNL     1       9.118   5.112  -0.242  1.00  0.00     0.128 C 
HETATM   10  H   UNL     1       7.408   3.393   0.508  1.00  0.00     0.164 HD
ENDROOT
BRANCH   1  11
HETATM   11  C   UNL     1       5.423   2.989  -0.016  1.00  0.00     0.129 C 
BRANCH  11  12
HETATM   12  C   UNL     1       5.700   1.498  -0.205  1.00  0.00     0.061 C 
BRANCH  12  13
HETATM   13  C   UNL     1       4.465   0.672  -0.150  1.00  0.00    -0.023 A 
HETATM   14  C   UNL     1       3.868   0.100   0.955  1.00  0.00     0.118 A 
HETATM   15  N   UNL     1       2.764  -0.561   0.498  1.00  0.00    -0.308 N 
HETATM   16  C   UNL     1       1.813  -1.311   1.278  1.00  0.00     0.177 C 
HETATM   17  N   UNL     1       2.602  -0.463  -0.833  1.00  0.00    -0.310 N 
HETATM   18  C   UNL     1       3.633   0.288  -1.226  1.00  0.00     0.115 A 
ATOM     19  HN  UNL     1       1.863  -0.868  -1.408  1.00  0.00     0.186 HD
ENDBRANCH  12  13
ENDBRANCH  11  12
ENDBRANCH   1  11
BRANCH   7  20
HETATM   20  C   UNL     1      11.018   7.600   0.039  1.00  0.00     0.168 C 
BRANCH  20  21
HETATM   21  O   UNL     1      11.209   9.004   0.159  1.00  0.00    -0.400 OA
HETATM   22  H   UNL     1      11.634   9.314  -0.659  1.00  0.00     0.209 HD
ENDBRANCH  20  21
ENDBRANCH   7  20
TORSDOF 5
