REMARK  3 active torsions:
REMARK  status: ('A' for Active; 'I' for Inactive)
REMARK    1  A    between atoms: C_2  and  C_3 
REMARK    2  A    between atoms: C_2  and  N_10 
REMARK    3  A    between atoms: C_3  and  N_4 
REMARK       I    between atoms: N_10  and  C_11 
REMARK       I    between atoms: C_11  and  N_13 
ROOT
HETATM    1  N   UNL     1       3.196  -0.214   1.501  1.00  0.00    -0.337 N 
HETATM    2  C   UNL     1       4.524  -0.167   1.826  1.00  0.00     0.318 C 
HETATM    3  O   UNL     1       5.400   0.108   1.014  1.00  0.00    -0.247 OA
HETATM    4  N   UNL     1       4.767  -0.405   3.166  1.00  0.00    -0.329 N 
HETATM    5  C   UNL     1       6.077  -0.099   3.742  1.00  0.00     0.159 C 
HETATM    6  C   UNL     1       6.806  -1.377   4.199  1.00  0.00     0.136 C 
HETATM    7  C   UNL     1       8.058  -1.031   4.994  1.00  0.00     0.041 C 
HETATM    8  O   UNL     1       5.960  -2.170   5.058  1.00  0.00    -0.378 OA
HETATM    9  C   UNL     1       4.746  -2.544   4.382  1.00  0.00     0.136 C 
HETATM   10  C   UNL     1       3.941  -3.438   5.313  1.00  0.00     0.041 C 
HETATM   11  C   UNL     1       3.945  -1.287   4.002  1.00  0.00     0.159 C 
HETATM   12  H   UNL     1       2.583   0.021   2.268  1.00  0.00     0.164 HD
ENDROOT
BRANCH   1  13
HETATM   13  C   UNL     1       2.675   0.022   0.151  1.00  0.00     0.100 C 
HETATM   14  C   UNL     1       1.159  -0.198   0.192  1.00  0.00     0.034 C 
BRANCH  13  15
HETATM   15  C   UNL     1       3.032   1.421  -0.394  1.00  0.00     0.153 C 
BRANCH  15  16
HETATM   16  N   UNL     1       2.550   1.671  -1.739  1.00  0.00    -0.350 N 
HETATM   17  C   UNL     1       1.708   2.678  -2.123  1.00  0.00     0.108 A 
HETATM   18  C   UNL     1       1.556   2.513  -3.480  1.00  0.00     0.106 A 
HETATM   19  N   UNL     1       2.280   1.436  -3.923  1.00  0.00    -0.361 N 
HETATM   20  C   UNL     1       2.883   0.961  -2.857  1.00  0.00     0.182 A 
ATOM     21  HN  UNL     1       2.338   1.080  -4.877  1.00  0.00     0.166 HD
ENDBRANCH  15  16
ENDBRANCH  13  15
ENDBRANCH   1  13
TORSDOF 3
