REMARK  5 active torsions:
REMARK  status: ('A' for Active; 'I' for Inactive)
REMARK    1  A    between atoms: C_2  and  C_3 
REMARK    2  A    between atoms: C_2  and  N_10 
REMARK    3  A    between atoms: C_3  and  N_4 
REMARK    4  A    between atoms: N_10  and  C_11 
REMARK    5  A    between atoms: C_11  and  C_12 
REMARK       I    between atoms: C_12  and  N_14 
ROOT
HETATM    1  N   UNL     1       3.072   0.999   1.038  1.00  0.00     0.098 N 
HETATM    2  H   UNL     1       2.590   0.893   1.935  1.00  0.00     0.317 HD
ENDROOT
BRANCH   1   3
HETATM    3  C   UNL     1       2.530   0.053   0.039  1.00  0.00     0.236 C 
HETATM    4  C   UNL     1       1.008   0.240   0.015  1.00  0.00     0.044 C 
BRANCH   3   5
HETATM    5  C   UNL     1       3.140   0.285  -1.363  1.00  0.00     0.183 C 
BRANCH   5   6
HETATM    6  N   UNL     1       2.619  -0.594  -2.391  1.00  0.00    -0.302 N 
HETATM    7  C   UNL     1       2.015  -0.219  -3.553  1.00  0.00     0.111 A 
HETATM    8  C   UNL     1       1.705  -1.385  -4.211  1.00  0.00     0.037 A 
HETATM    9  C   UNL     1       2.184  -2.407  -3.372  1.00  0.00     0.108 A 
HETATM   10  N   UNL     1       2.760  -1.928  -2.267  1.00  0.00    -0.310 N 
ATOM     11  HN  UNL     1       3.202  -2.448  -1.509  1.00  0.00     0.186 HD
ENDBRANCH   5   6
ENDBRANCH   3   5
ENDBRANCH   1   3
BRANCH   1  12
HETATM   12  C   UNL     1       4.512   0.816   1.271  1.00  0.00     0.372 C 
BRANCH  12  13
HETATM   13  C   UNL     1       5.040   1.770   2.356  1.00  0.00     0.248 C 
HETATM   14  O   UNL     1       4.289   2.438   3.067  1.00  0.00    -0.271 OA
HETATM   15  N   UNL     1       6.423   1.846   2.463  1.00  0.00    -0.346 N 
HETATM   16  C   UNL     1       7.045   2.868   3.305  1.00  0.00     0.152 C 
HETATM   17  C   UNL     1       7.387   0.951   1.816  1.00  0.00     0.157 C 
HETATM   18  C   UNL     1       8.113   3.621   2.500  1.00  0.00     0.188 C 
HETATM   19  O   UNL     1       9.074   2.715   1.924  1.00  0.00    -0.383 OA
HETATM   20  C   UNL     1       8.435   1.770   1.046  1.00  0.00     0.135 C 
HETATM   21  C   UNL     1       9.506   0.857   0.467  1.00  0.00     0.041 C 
ENDBRANCH  12  13
ENDBRANCH   1  12
TORSDOF 5
