REMARK  4 active torsions:
REMARK  status: ('A' for Active; 'I' for Inactive)
REMARK    1  A    between atoms: O_2  and  C_3 
REMARK    2  A    between atoms: C_3  and  C_6 
REMARK       I    between atoms: C_6  and  N_8 
REMARK    3  A    between atoms: N_8  and  C_9 
REMARK    4  A    between atoms: C_13  and  N_14 
ROOT
HETATM    1  C   UNL     1       6.706  -1.205   2.157  1.00  0.00     0.051 A 
HETATM    2  C   UNL     1       7.611  -2.252   2.244  1.00  0.00     0.119 A 
HETATM    3  N   UNL     1       8.961  -2.106   2.275  1.00  0.00    -0.350 N 
ATOM      4  HN  UNL     1       9.562  -2.929   2.318  1.00  0.00     0.166 HD
HETATM    5  C   UNL     1       9.508  -0.871   2.249  1.00  0.00     0.109 A 
HETATM    6  C   UNL     1       8.664   0.254   2.192  1.00  0.00    -0.016 A 
HETATM    7  C   UNL     1       9.140   1.677   2.289  1.00  0.00     0.052 C 
HETATM    8  C   UNL     1       7.259   0.066   2.100  1.00  0.00     0.041 A 
ENDROOT
BRANCH   1   9
HETATM    9  N   UNL     1       5.296  -1.352   2.149  1.00  0.00    -0.323 N 
HETATM   10  C   UNL     1       4.619  -2.521   2.466  1.00  0.00     0.256 C 
HETATM   11  O   UNL     1       5.159  -3.573   2.809  1.00  0.00    -0.270 OA
HETATM   12  H   UNL     1       4.731  -0.521   2.034  1.00  0.00     0.169 HD
BRANCH  10  13
HETATM   13  C   UNL     1       3.068  -2.417   2.370  1.00  0.00     0.133 C 
HETATM   14  C   UNL     1       2.436  -3.714   2.906  1.00  0.00     0.056 C 
HETATM   15  C   UNL     1       2.685  -2.285   0.887  1.00  0.00     0.056 C 
BRANCH  13  16
HETATM   16  O   UNL     1       2.532  -1.253   3.011  1.00  0.00    -0.376 OA
HETATM   17  C   UNL     1       2.769  -1.161   4.411  1.00  0.00     0.203 C 
ENDBRANCH  13  16
ENDBRANCH  10  13
ENDBRANCH   1   9
BRANCH   5  18
HETATM   18  N   UNL     1      10.887  -0.812   2.350  1.00  0.00    -0.367 N 
HETATM   19  C   UNL     1      11.707   0.074   1.531  1.00  0.00     0.124 C 
HETATM   20  C   UNL     1      12.618  -0.713   0.589  1.00  0.00     0.020 C 
HETATM   21  C   UNL     1      13.432  -1.761   1.336  1.00  0.00     0.003 C 
HETATM   22  C   UNL     1      12.501  -2.690   2.106  1.00  0.00     0.020 C 
HETATM   23  C   UNL     1      11.579  -1.908   3.041  1.00  0.00     0.124 C 
ENDBRANCH   5  18
TORSDOF 4
