REMARK  7 active torsions:
REMARK  status: ('A' for Active; 'I' for Inactive)
REMARK    1  A    between atoms: N_2  and  C_13 
REMARK    2  A    between atoms: C_3  and  N_7 
REMARK    3  A    between atoms: C_13  and  C_15 
REMARK    4  A    between atoms: C_14  and  C_17 
REMARK    5  A    between atoms: C_15  and  C_18 
REMARK    6  A    between atoms: C_15  and  O_22 
REMARK    7  A    between atoms: C_17  and  C_24 
ROOT
HETATM    1  C   UNL     1       0.551  -0.818  -0.394  1.00  0.00     0.122 A 
HETATM    2  N   UNL     1       1.747   1.016  -0.348  1.00  0.00    -0.325 N 
HETATM    3  C   UNL     1      -0.679  -1.525  -0.452  1.00  0.00     0.136 A 
HETATM    4  C   UNL     1       0.504   0.545  -0.674  1.00  0.00     0.140 A 
HETATM    5  N   UNL     1       1.840  -1.178  -0.039  1.00  0.00    -0.346 N 
ATOM      6  HN  UNL     1       2.179  -2.112   0.192  1.00  0.00     0.167 HD
HETATM    7  C   UNL     1       2.536  -0.060  -0.062  1.00  0.00     0.185 C 
HETATM    8  N   UNL     1      -1.762  -0.805  -0.888  1.00  0.00    -0.337 N 
ATOM      9  HN  UNL     1      -2.669  -1.263  -0.983  1.00  0.00     0.168 HD
HETATM   10  N   UNL     1      -0.549   1.271  -1.074  1.00  0.00    -0.336 N 
ATOM     11  HN  UNL     1      -0.524   2.273  -1.263  1.00  0.00     0.168 HD
HETATM   12  C   UNL     1      -1.639   0.501  -1.192  1.00  0.00     0.183 A 
ENDROOT
BRANCH   3  13
HETATM   13  N   UNL     1      -0.882  -2.857  -0.118  1.00  0.00    -0.356 N 
HETATM   14  C   UNL     1       0.201  -3.755   0.355  1.00  0.00     0.110 C 
HETATM   15  C   UNL     1      -0.218  -5.194  -0.056  1.00  0.00     0.193 C 
HETATM   16  O   UNL     1      -1.476  -5.566   0.536  1.00  0.00    -0.388 OA
HETATM   17  C   UNL     1      -2.516  -4.709   0.040  1.00  0.00     0.187 C 
HETATM   18  C   UNL     1      -2.242  -3.224   0.317  1.00  0.00     0.151 C 
BRANCH  14  19
HETATM   19  C   UNL     1       0.409  -3.627   1.885  1.00  0.00     0.032 C 
BRANCH  19  20
HETATM   20  C   UNL     1       1.556  -4.500   2.395  1.00  0.00    -0.013 C 
HETATM   21  C   UNL     1       1.822  -4.468   3.927  1.00  0.00     0.005 C 
HETATM   22  C   UNL     1       3.319  -4.642   3.593  1.00  0.00     0.001 C 
HETATM   23  C   UNL     1       3.012  -3.983   2.231  1.00  0.00     0.005 C 
ENDBRANCH  19  20
ENDBRANCH  14  19
ENDBRANCH   3  13
BRANCH   2  24
HETATM   24  C   UNL     1       2.109   2.408  -0.192  1.00  0.00     0.165 C 
BRANCH  24  25
HETATM   25  C   UNL     1       1.288   3.192   0.851  1.00  0.00     0.165 C 
BRANCH  25  26
HETATM   26  C   UNL     1       1.434   2.764   2.324  1.00  0.00     0.151 C 
HETATM   27  O   UNL     1       2.826   2.744   2.700  1.00  0.00    -0.383 OA
HETATM   28  C   UNL     1       2.980   1.795   3.771  1.00  0.00     0.168 C 
HETATM   29  C   UNL     1       1.620   1.178   4.042  1.00  0.00     0.029 C 
HETATM   30  C   UNL     1       0.874   1.423   2.754  1.00  0.00     0.036 C 
ENDBRANCH  25  26
BRANCH  25  31
HETATM   31  O   UNL     1       1.711   4.573   0.765  1.00  0.00    -0.391 OA
HETATM   32  H   UNL     1       2.415   4.693   1.434  1.00  0.00     0.210 HD
ENDBRANCH  25  31
ENDBRANCH  24  25
ENDBRANCH   2  24
TORSDOF 7
