REMARK  3 active torsions:
REMARK  status: ('A' for Active; 'I' for Inactive)
REMARK    1  A    between atoms: C_2  and  N_3 
REMARK    2  A    between atoms: C_2  and  C_16 
REMARK       I    between atoms: N_3  and  C_4 
REMARK       I    between atoms: C_4  and  N_6 
REMARK    3  A    between atoms: N_6  and  C_7 
ROOT
HETATM    1  N   UNL     1       2.693   0.011  -1.613  1.00  0.00    -0.338 N 
HETATM    2  C   UNL     1       2.497  -1.055  -2.460  1.00  0.00     0.322 C 
HETATM    3  O   UNL     1       2.109  -2.154  -2.092  1.00  0.00    -0.247 OA
HETATM    4  N   UNL     1       2.744  -0.702  -3.769  1.00  0.00    -0.295 N 
HETATM    5  H   UNL     1       3.373   0.693  -1.919  1.00  0.00     0.164 HD
HETATM    6  H   UNL     1       2.315   0.173  -4.029  1.00  0.00     0.172 HD
ENDROOT
BRANCH   1   7
HETATM    7  C   UNL     1       2.332  -0.017  -0.194  1.00  0.00     0.086 C 
HETATM    8  C   UNL     1       1.877   1.397   0.187  1.00  0.00     0.032 C 
BRANCH   7   9
HETATM    9  C   UNL     1       3.495  -0.520   0.719  1.00  0.00     0.012 C 
HETATM   10  C   UNL     1       3.988  -1.940   0.379  1.00  0.00     0.033 C 
HETATM   11  C   UNL     1       2.969  -3.007   0.775  1.00  0.00     0.168 C 
HETATM   12  O   UNL     1       2.645  -2.912   2.164  1.00  0.00    -0.391 OA
HETATM   13  C   UNL     1       2.110  -1.639   2.520  1.00  0.00     0.168 C 
HETATM   14  C   UNL     1       3.122  -0.539   2.217  1.00  0.00     0.033 C 
ENDBRANCH   7   9
ENDBRANCH   1   7
BRANCH   4  15
HETATM   15  C   UNL     1       2.661  -1.642  -4.801  1.00  0.00     0.109 A 
HETATM   16  C   UNL     1       3.361  -2.841  -4.740  1.00  0.00     0.055 A 
HETATM   17  C   UNL     1       3.290  -3.714  -5.827  1.00  0.00    -0.057 A 
HETATM   18  C   UNL     1       4.096  -4.976  -5.870  1.00  0.00     0.048 C 
HETATM   19  C   UNL     1       2.458  -3.377  -6.891  1.00  0.00     0.031 A 
HETATM   20  C   UNL     1       1.780  -2.161  -6.867  1.00  0.00     0.007 A 
HETATM   21  C   UNL     1       0.810  -1.800  -7.952  1.00  0.00     0.068 C 
HETATM   22  N   UNL     1       1.916  -1.268  -5.858  1.00  0.00    -0.346 N 
ATOM     23  HN  UNL     1       1.472  -0.350  -5.897  1.00  0.00     0.167 HD
ENDBRANCH   4  15
TORSDOF 3
