REMARK  4 active torsions:
REMARK  status: ('A' for Active; 'I' for Inactive)
REMARK    1  A    between atoms: C_6  and  O_8 
REMARK    2  A    between atoms: O_8  and  C_9 
REMARK    3  A    between atoms: C_9  and  C_10 
REMARK       I    between atoms: C_10  and  N_12 
REMARK    4  A    between atoms: N_12  and  C_13 
ROOT
HETATM    1  C   UNL     1       3.421  -4.707  -3.771  1.00  0.00     0.246 C 
HETATM    2  O   UNL     1       4.432  -4.800  -4.464  1.00  0.00    -0.271 OA
HETATM    3  N   UNL     1       2.779  -5.768  -3.170  1.00  0.00    -0.310 N 
HETATM    4  H   UNL     1       1.802  -5.678  -2.932  1.00  0.00     0.170 HD
ENDROOT
BRANCH   1   5
HETATM    5  C   UNL     1       2.729  -3.370  -3.561  1.00  0.00     0.271 C 
BRANCH   5   6
HETATM    6  O   UNL     1       3.047  -2.897  -2.261  1.00  0.00    -0.377 OA
BRANCH   6   7
HETATM    7  C   UNL     1       2.470  -1.627  -1.942  1.00  0.00     0.122 C 
HETATM    8  C   UNL     1       2.996  -0.512  -2.854  1.00  0.00     0.032 C 
HETATM    9  C   UNL     1       2.543   0.871  -2.405  1.00  0.00     0.003 C 
HETATM   10  C   UNL     1       2.895   1.137  -0.946  1.00  0.00     0.004 C 
HETATM   11  C   UNL     1       2.379   0.044   0.001  1.00  0.00    -0.016 C 
HETATM   12  C   UNL     1       0.858   0.113   0.171  1.00  0.00     0.010 C 
HETATM   13  C   UNL     1       2.830  -1.339  -0.479  1.00  0.00     0.036 C 
ENDBRANCH   6   7
ENDBRANCH   5   6
ENDBRANCH   1   5
BRANCH   3  14
HETATM   14  C   UNL     1       3.222  -7.087  -3.279  1.00  0.00     0.123 A 
HETATM   15  C   UNL     1       4.572  -7.436  -3.339  1.00  0.00     0.136 A 
HETATM   16  N   UNL     1       4.996  -8.715  -3.499  1.00  0.00    -0.371 N 
HETATM   17  C   UNL     1       4.011  -9.626  -3.627  1.00  0.00     0.104 A 
ATOM     18  HN  UNL     1       5.984  -8.968  -3.521  1.00  0.00     0.164 HD
HETATM   19  C   UNL     1       2.674  -9.285  -3.544  1.00  0.00     0.106 A 
HETATM   20  N   UNL     1       2.244  -8.019  -3.337  1.00  0.00    -0.350 N 
ATOM     21  HN  UNL     1       1.257  -7.785  -3.233  1.00  0.00     0.166 HD
ENDBRANCH   3  14
TORSDOF 4
