REMARK  6 active torsions:
REMARK  status: ('A' for Active; 'I' for Inactive)
REMARK       I    between atoms: N_2  and  C_3 
REMARK    1  A    between atoms: C_3  and  C_5 
REMARK    2  A    between atoms: C_5  and  S_7 
REMARK    3  A    between atoms: S_7  and  C_8 
REMARK    4  A    between atoms: N_17  and  C_18 
REMARK    5  A    between atoms: C_18  and  C_19 
REMARK    6  A    between atoms: C_19  and  O_20 
ROOT
HETATM    1  C   UNL     1       7.161   2.161   1.920  1.00  0.00     0.148 A 
HETATM    2  N   UNL     1       7.881   2.608   0.921  1.00  0.00    -0.335 N 
ATOM      3  HN  UNL     1       7.543   3.019   0.051  1.00  0.00     0.168 HD
HETATM    4  C   UNL     1       9.179   2.407   1.291  1.00  0.00     0.061 A 
HETATM    5  C   UNL     1      10.352   2.746   0.600  1.00  0.00     0.032 A 
HETATM    6  C   UNL     1      11.589   2.480   1.197  1.00  0.00     0.002 A 
HETATM    7  C   UNL     1      11.652   1.875   2.451  1.00  0.00     0.002 A 
HETATM    8  C   UNL     1      10.490   1.511   3.149  1.00  0.00     0.032 A 
HETATM    9  C   UNL     1       9.261   1.794   2.542  1.00  0.00     0.063 A 
HETATM   10  N   UNL     1       7.938   1.620   2.918  1.00  0.00    -0.324 N 
ENDROOT
BRANCH   1  11
HETATM   11  S   UNL     1       5.444   2.354   2.010  1.00  0.00    -0.080 SA
BRANCH  11  12
HETATM   12  C   UNL     1       4.874   1.383   0.556  1.00  0.00     0.143 C 
HETATM   13  C   UNL     1       5.381   1.901  -0.786  1.00  0.00     0.031 C 
BRANCH  12  14
HETATM   14  C   UNL     1       3.341   1.390   0.557  1.00  0.00     0.231 C 
HETATM   15  N   UNL     1       2.763   2.635   0.395  1.00  0.00    -0.364 N 
HETATM   16  C   UNL     1       1.334   2.810   0.394  1.00  0.00     0.149 C 
HETATM   17  H   UNL     1       3.352   3.450   0.523  1.00  0.00     0.161 HD
HETATM   18  O   UNL     1       2.683   0.356   0.663  1.00  0.00    -0.272 OA
ENDBRANCH  12  14
ENDBRANCH  11  12
ENDBRANCH   1  11
BRANCH  10  19
HETATM   19  C   UNL     1       7.479   1.017   4.157  1.00  0.00     0.157 C 
BRANCH  19  20
HETATM   20  C   UNL     1       6.716  -0.289   3.942  1.00  0.00     0.187 C 
BRANCH  20  21
HETATM   21  O   UNL     1       6.264  -0.799   5.199  1.00  0.00    -0.394 OA
HETATM   22  C   UNL     1       5.426  -1.938   5.014  1.00  0.00     0.201 C 
ENDBRANCH  20  21
ENDBRANCH  19  20
ENDBRANCH  10  19
TORSDOF 6
