REMARK  4 active torsions:
REMARK  status: ('A' for Active; 'I' for Inactive)
REMARK    1  A    between atoms: N_11  and  C_12 
REMARK    2  A    between atoms: C_12  and  C_13 
REMARK    3  A    between atoms: C_13  and  O_14 
REMARK    4  A    between atoms: C_13  and  C_15 
ROOT
HETATM    1  C   UNL     1       1.032   0.115   0.042  1.00  0.00     0.164 C 
HETATM    2  N   UNL     1       2.480   0.036   0.064  1.00  0.00    -0.269 N 
HETATM    3  C   UNL     1       3.080  -1.239   0.068  1.00  0.00     0.332 A 
HETATM    4  O   UNL     1       2.402  -2.269   0.054  1.00  0.00    -0.246 OA
HETATM    5  N   UNL     1       4.477  -1.284   0.094  1.00  0.00    -0.287 N 
HETATM    6  C   UNL     1       5.175  -2.557   0.089  1.00  0.00     0.163 C 
HETATM    7  C   UNL     1       5.190  -0.110   0.107  1.00  0.00     0.145 A 
HETATM    8  N   UNL     1       6.547   0.009   0.137  1.00  0.00    -0.336 N 
ATOM      9  HN  UNL     1       7.239  -0.740   0.161  1.00  0.00     0.168 HD
HETATM   10  C   UNL     1       6.764   1.309   0.128  1.00  0.00     0.185 A 
HETATM   11  N   UNL     1       5.591   2.016   0.087  1.00  0.00    -0.333 N 
HETATM   12  C   UNL     1       4.573   1.104   0.090  1.00  0.00     0.149 A 
HETATM   13  C   UNL     1       3.160   1.259   0.062  1.00  0.00     0.282 A 
HETATM   14  O   UNL     1       2.605   2.355   0.043  1.00  0.00    -0.265 OA
ENDROOT
BRANCH  11  15
HETATM   15  C   UNL     1       5.465   3.461   0.095  1.00  0.00     0.167 C 
BRANCH  15  16
HETATM   16  C   UNL     1       5.352   4.064  -1.315  1.00  0.00     0.169 C 
BRANCH  16  17
HETATM   17  O   UNL     1       4.252   3.530  -2.052  1.00  0.00    -0.389 OA
HETATM   18  H   UNL     1       3.431   3.731  -1.566  1.00  0.00     0.210 HD
ENDBRANCH  16  17
BRANCH  16  19
HETATM   19  C   UNL     1       5.208   5.572  -1.263  1.00  0.00    -0.028 A 
HETATM   20  C   UNL     1       6.148   6.390  -1.908  1.00  0.00     0.010 A 
HETATM   21  C   UNL     1       6.038   7.780  -1.851  1.00  0.00     0.001 A 
HETATM   22  C   UNL     1       4.985   8.370  -1.155  1.00  0.00     0.000 A 
HETATM   23  C   UNL     1       4.035   7.572  -0.522  1.00  0.00     0.001 A 
HETATM   24  C   UNL     1       4.143   6.181  -0.578  1.00  0.00     0.010 A 
ENDBRANCH  16  19
ENDBRANCH  15  16
ENDBRANCH  11  15
TORSDOF 4
