REMARK  7 active torsions:
REMARK  status: ('A' for Active; 'I' for Inactive)
REMARK    1  A    between atoms: O_1  and  C_2 
REMARK    2  A    between atoms: C_2  and  C_3 
REMARK    3  A    between atoms: C_2  and  C_11 
REMARK    4  A    between atoms: C_3  and  O_4 
REMARK    5  A    between atoms: O_4  and  C_5 
REMARK    6  A    between atoms: C_5  and  C_6 
REMARK    7  A    between atoms: C_11  and  N_12 
ROOT
HETATM    1  C   UNL     1       2.485  -0.063  -0.001  1.00  0.00     0.160 C 
ENDROOT
BRANCH   1   2
HETATM    2  O   UNL     1       1.055  -0.150   0.014  1.00  0.00    -0.392 OA
HETATM    3  H   UNL     1       0.712   0.679   0.394  1.00  0.00     0.210 HD
ENDBRANCH   1   2
BRANCH   1   4
HETATM    4  C   UNL     1       2.976  -0.188   1.446  1.00  0.00     0.201 C 
BRANCH   4   5
HETATM    5  O   UNL     1       4.396  -0.113   1.512  1.00  0.00    -0.384 OA
BRANCH   5   6
HETATM    6  C   UNL     1       4.853  -0.266   2.860  1.00  0.00     0.213 C 
BRANCH   6   7
HETATM    7  C   UNL     1       6.346  -0.193   2.850  1.00  0.00     0.006 A 
HETATM    8  C   UNL     1       7.185   0.473   1.977  1.00  0.00     0.017 A 
HETATM    9  C   UNL     1       8.559   0.323   2.320  1.00  0.00     0.008 A 
HETATM   10  C   UNL     1       8.727  -0.447   3.449  1.00  0.00     0.050 A 
HETATM   11  S   UNL     1       7.235  -0.984   4.086  1.00  0.00    -0.104 SA
ENDBRANCH   6   7
ENDBRANCH   5   6
ENDBRANCH   4   5
ENDBRANCH   1   4
BRANCH   1  12
HETATM   12  C   UNL     1       3.064  -1.178  -0.880  1.00  0.00     0.164 C 
BRANCH  12  13
HETATM   13  N   UNL     1       2.674  -1.044  -2.273  1.00  0.00    -0.339 N 
HETATM   14  C   UNL     1       1.555  -1.605  -2.827  1.00  0.00     0.184 A 
HETATM   15  N   UNL     1       1.451  -1.326  -4.106  1.00  0.00    -0.350 N 
HETATM   16  C   UNL     1       2.548  -0.552  -4.393  1.00  0.00     0.060 A 
ATOM     17  HN  UNL     1       0.715  -1.621  -4.747  1.00  0.00     0.166 HD
HETATM   18  C   UNL     1       2.930   0.029  -5.611  1.00  0.00     0.032 A 
HETATM   19  C   UNL     1       3.343  -0.365  -3.262  1.00  0.00     0.062 A 
HETATM   20  C   UNL     1       4.110   0.779  -5.659  1.00  0.00     0.002 A 
HETATM   21  C   UNL     1       4.895   0.947  -4.518  1.00  0.00     0.002 A 
HETATM   22  C   UNL     1       4.528   0.379  -3.289  1.00  0.00     0.032 A 
ENDBRANCH  12  13
ENDBRANCH   1  12
TORSDOF 7
