REMARK  6 active torsions:
REMARK  status: ('A' for Active; 'I' for Inactive)
REMARK    1  A    between atoms: O_1  and  C_2 
REMARK    2  A    between atoms: C_8  and  N_9 
REMARK       I    between atoms: N_9  and  C_10 
REMARK    3  A    between atoms: C_10  and  C_12 
REMARK    4  A    between atoms: C_12  and  O_13 
REMARK    5  A    between atoms: O_13  and  C_14 
REMARK    6  A    between atoms: C_14  and  C_15 
ROOT
HETATM    1  N   UNL     1       2.132  -2.167  -0.119  1.00  0.00    -0.322 N 
HETATM    2  C   UNL     1       0.783  -2.312  -0.375  1.00  0.00     0.245 C 
HETATM    3  O   UNL     1       0.024  -1.430  -0.768  1.00  0.00    -0.271 OA
HETATM    4  H   UNL     1       2.684  -2.999   0.060  1.00  0.00     0.169 HD
ENDROOT
BRANCH   1   5
HETATM    5  C   UNL     1       2.853  -0.954  -0.128  1.00  0.00     0.083 A 
HETATM    6  C   UNL     1       4.247  -1.012  -0.041  1.00  0.00     0.095 A 
HETATM    7  C   UNL     1       5.011   0.153  -0.062  1.00  0.00     0.056 A 
HETATM    8  C   UNL     1       4.335   1.359  -0.129  1.00  0.00     0.090 A 
HETATM    9  N   UNL     1       2.992   1.467  -0.173  1.00  0.00    -0.373 N 
HETATM   10  C   UNL     1       2.282   0.308  -0.179  1.00  0.00     0.119 A 
ATOM     11  HN  UNL     1       2.530   2.376  -0.201  1.00  0.00     0.164 HD
BRANCH   6  12
HETATM   12  O   UNL     1       4.853  -2.238   0.059  1.00  0.00    -0.358 OA
HETATM   13  H   UNL     1       5.784  -2.102   0.307  1.00  0.00     0.217 HD
ENDBRANCH   6  12
ENDBRANCH   1   5
BRANCH   2  14
HETATM   14  C   UNL     1       0.270  -3.726  -0.103  1.00  0.00     0.270 C 
BRANCH  14  15
HETATM   15  O   UNL     1       0.495  -4.153   1.236  1.00  0.00    -0.382 OA
BRANCH  15  16
HETATM   16  C   UNL     1      -0.298  -3.412   2.167  1.00  0.00     0.172 C 
BRANCH  16  17
HETATM   17  C   UNL     1      -0.086  -3.996   3.526  1.00  0.00     0.009 A 
HETATM   18  C   UNL     1      -0.664  -3.320   4.743  1.00  0.00     0.007 A 
HETATM   19  C   UNL     1       0.824  -3.322   4.521  1.00  0.00     0.007 A 
ENDBRANCH  16  17
ENDBRANCH  15  16
ENDBRANCH  14  15
ENDBRANCH   2  14
TORSDOF 6
