REMARK  6 active torsions:
REMARK  status: ('A' for Active; 'I' for Inactive)
REMARK    1  A    between atoms: C_2  and  C_4 
REMARK    2  A    between atoms: C_4  and  C_7 
REMARK    3  A    between atoms: C_7  and  O_8 
REMARK    4  A    between atoms: O_8  and  C_9 
REMARK    5  A    between atoms: C_12  and  N_13 
REMARK    6  A    between atoms: N_13  and  C_14 
ROOT
HETATM    1  C   UNL     1       6.252  -2.296  -1.814  1.00  0.00     0.142 A 
HETATM    2  C   UNL     1       6.984  -1.226  -2.283  1.00  0.00     0.058 A 
HETATM    3  C   UNL     1       8.307  -1.446  -2.659  1.00  0.00     0.035 A 
HETATM    4  C   UNL     1       8.883  -2.717  -2.562  1.00  0.00     0.044 A 
HETATM    5  C   UNL     1       8.041  -3.720  -2.072  1.00  0.00     0.119 A 
HETATM    6  N   UNL     1       6.744  -3.544  -1.686  1.00  0.00    -0.345 N 
ATOM      7  HN  UNL     1       6.180  -4.312  -1.322  1.00  0.00     0.167 HD
ENDROOT
BRANCH   1   8
HETATM    8  O   UNL     1       4.930  -2.031  -1.540  1.00  0.00    -0.330 OA
BRANCH   8   9
HETATM    9  C   UNL     1       4.293  -3.013  -0.712  1.00  0.00     0.262 C 
BRANCH   9  10
HETATM   10  C   UNL     1       2.988  -2.412  -0.204  1.00  0.00     0.322 C 
HETATM   11  F   UNL     1       2.153  -2.150  -1.249  1.00  0.00    -0.198 F 
HETATM   12  F   UNL     1       3.230  -1.205   0.387  1.00  0.00    -0.198 F 
BRANCH  10  13
HETATM   13  C   UNL     1       2.285  -3.318   0.790  1.00  0.00     0.427 C 
HETATM   14  F   UNL     1       1.981  -4.515   0.226  1.00  0.00    -0.208 F 
HETATM   15  F   UNL     1       3.094  -3.591   1.849  1.00  0.00    -0.208 F 
ENDBRANCH  10  13
ENDBRANCH   9  10
ENDBRANCH   8   9
ENDBRANCH   1   8
BRANCH   4  16
HETATM   16  N   UNL     1      10.160  -2.898  -3.071  1.00  0.00    -0.382 N 
HETATM   17  H   UNL     1      10.660  -2.024  -3.227  1.00  0.00     0.160 HD
BRANCH  16  18
HETATM   18  C   UNL     1      11.020  -4.037  -2.777  1.00  0.00     0.107 C 
HETATM   19  C   UNL     1      11.666  -3.942  -1.404  1.00  0.00     0.053 C 
HETATM   20  C   UNL     1      13.132  -4.274  -1.622  1.00  0.00     0.169 C 
HETATM   21  O   UNL     1      13.296  -4.653  -2.991  1.00  0.00    -0.389 OA
HETATM   22  C   UNL     1      12.223  -4.053  -3.719  1.00  0.00     0.192 C 
ENDBRANCH  16  18
ENDBRANCH   4  16
TORSDOF 6
