REMARK  4 active torsions:
REMARK  status: ('A' for Active; 'I' for Inactive)
REMARK    1  A    between atoms: C_5  and  C_6 
REMARK    2  A    between atoms: C_6  and  C_7 
REMARK       I    between atoms: C_7  and  N_9 
REMARK    3  A    between atoms: N_9  and  C_10 
REMARK    4  A    between atoms: C_10  and  C_11 
ROOT
HETATM    1  C   UNL     1       7.025   0.851  -0.059  1.00  0.00     0.223 C 
HETATM    2  O   UNL     1       7.020  -0.375   0.053  1.00  0.00    -0.273 OA
HETATM    3  N   UNL     1       8.202   1.564  -0.130  1.00  0.00    -0.358 N 
HETATM    4  H   UNL     1       8.151   2.575  -0.003  1.00  0.00     0.162 HD
ENDROOT
BRANCH   1   5
HETATM    5  C   UNL     1       5.722   1.603  -0.234  1.00  0.00     0.160 C 
BRANCH   5   6
HETATM    6  C   UNL     1       5.695   2.981   0.337  1.00  0.00     0.025 A 
HETATM    7  N   UNL     1       6.525   3.951  -0.207  1.00  0.00    -0.357 N 
HETATM    8  C   UNL     1       6.307   5.112   0.372  1.00  0.00     0.047 A 
ATOM      9  HN  UNL     1       7.206   3.787  -0.949  1.00  0.00     0.166 HD
HETATM   10  C   UNL     1       7.004   6.375   0.012  1.00  0.00     0.076 C 
HETATM   11  S   UNL     1       5.119   5.107   1.612  1.00  0.00    -0.087 SA
HETATM   12  C   UNL     1       4.865   3.435   1.346  1.00  0.00     0.077 A 
ENDBRANCH   5   6
ENDBRANCH   1   5
BRANCH   3  13
HETATM   13  C   UNL     1       9.462   0.882   0.094  1.00  0.00     0.154 C 
BRANCH  13  14
HETATM   14  C   UNL     1      10.697   1.770  -0.038  1.00  0.00     0.139 C 
HETATM   15  C   UNL     1      11.987   0.970   0.115  1.00  0.00     0.035 C 
HETATM   16  C   UNL     1      12.916   1.867   0.903  1.00  0.00     0.029 C 
HETATM   17  C   UNL     1      12.120   3.132   1.136  1.00  0.00     0.168 C 
HETATM   18  O   UNL     1      10.744   2.763   1.002  1.00  0.00    -0.384 OA
ENDBRANCH  13  14
ENDBRANCH   3  13
TORSDOF 4
