REMARK  7 active torsions:
REMARK  status: ('A' for Active; 'I' for Inactive)
REMARK    1  A    between atoms: C_7  and  O_8 
REMARK    2  A    between atoms: O_8  and  C_9 
REMARK    3  A    between atoms: C_9  and  C_10 
REMARK    4  A    between atoms: C_10  and  O_11 
REMARK    5  A    between atoms: C_10  and  C_12 
REMARK    6  A    between atoms: C_12  and  N_13 
REMARK    7  A    between atoms: C_16  and  C_21 
ROOT
HETATM    1  C   UNL     1       5.679  -4.739  -0.246  1.00  0.00     0.162 C 
ENDROOT
BRANCH   1   2
HETATM    2  C   UNL     1       4.710  -3.555  -0.150  1.00  0.00     0.209 C 
BRANCH   2   3
HETATM    3  O   UNL     1       3.795  -3.739   0.919  1.00  0.00    -0.347 OA
BRANCH   3   4
HETATM    4  C   UNL     1       2.845  -2.792   1.214  1.00  0.00     0.081 A 
HETATM    5  C   UNL     1       2.093  -3.167   2.363  1.00  0.00    -0.028 A 
HETATM    6  C   UNL     1       1.112  -2.317   2.885  1.00  0.00     0.010 A 
HETATM    7  C   UNL     1       2.338  -4.481   3.066  1.00  0.00     0.051 C 
HETATM    8  C   UNL     1       0.862  -1.093   2.288  1.00  0.00     0.008 A 
HETATM    9  C   UNL     1       1.571  -0.704   1.147  1.00  0.00    -0.053 A 
HETATM   10  C   UNL     1       1.261   0.655   0.561  1.00  0.00     0.049 C 
HETATM   11  C   UNL     1       2.552  -1.567   0.563  1.00  0.00    -0.022 A 
HETATM   12  C   UNL     1       3.177  -1.035  -0.705  1.00  0.00     0.052 C 
ENDBRANCH   3   4
ENDBRANCH   2   3
ENDBRANCH   1   2
BRANCH   1  13
HETATM   13  O   UNL     1       6.443  -4.852   0.963  1.00  0.00    -0.392 OA
HETATM   14  H   UNL     1       5.801  -4.796   1.696  1.00  0.00     0.210 HD
ENDBRANCH   1  13
BRANCH   1  15
HETATM   15  C   UNL     1       4.962  -6.068  -0.533  1.00  0.00     0.186 C 
BRANCH  15  16
HETATM   16  N   UNL     1       4.070  -6.032  -1.694  1.00  0.00    -0.255 N 
HETATM   17  N   UNL     1       2.727  -6.106  -1.410  1.00  0.00    -0.299 N 
HETATM   18  C   UNL     1       1.873  -6.026  -2.382  1.00  0.00     0.034 A 
ATOM     19  HN  UNL     1       2.407  -6.222  -0.448  1.00  0.00     0.187 HD
HETATM   20  C   UNL     1       2.283  -5.890  -3.803  1.00  0.00     0.033 A 
HETATM   21  C   UNL     1       3.587  -5.775  -4.057  1.00  0.00     0.078 A 
HETATM   22  C   UNL     1       4.579  -5.820  -2.966  1.00  0.00     0.262 A 
HETATM   23  O   UNL     1       5.766  -5.650  -3.233  1.00  0.00    -0.267 OA
BRANCH  18  24
HETATM   24  C   UNL     1       0.360  -6.053  -2.051  1.00  0.00    -0.007 C 
HETATM   25  C   UNL     1       0.141  -6.166  -0.528  1.00  0.00     0.021 C 
HETATM   26  C   UNL     1      -0.293  -4.748  -2.533  1.00  0.00     0.021 C 
HETATM   27  C   UNL     1      -0.310  -7.260  -2.724  1.00  0.00     0.021 C 
ENDBRANCH  18  24
ENDBRANCH  15  16
ENDBRANCH   1  15
TORSDOF 7
