REMARK  4 active torsions:
REMARK  status: ('A' for Active; 'I' for Inactive)
REMARK    1  A    between atoms: C_2  and  N_4 
REMARK    2  A    between atoms: C_9  and  C_10 
REMARK    3  A    between atoms: C_10  and  C_11 
REMARK    4  A    between atoms: C_11  and  N_12 
REMARK       I    between atoms: N_12  and  C_13 
REMARK       I    between atoms: C_13  and  N_15 
ROOT
HETATM    1  C   UNL     1       0.726  -1.353   1.597  1.00  0.00     0.132 C 
ENDROOT
BRANCH   1   2
HETATM    2  C   UNL     1       1.353  -2.610   0.991  1.00  0.00     0.096 C 
BRANCH   2   3
HETATM    3  C   UNL     1       0.326  -3.572   0.476  1.00  0.00     0.088 A 
HETATM    4  N   UNL     1       0.219  -3.996  -0.831  1.00  0.00    -0.289 N 
HETATM    5  C   UNL     1      -0.781  -4.935  -0.883  1.00  0.00     0.114 A 
HETATM    6  C   UNL     1      -1.257  -5.026   0.400  1.00  0.00     0.107 A 
HETATM    7  N   UNL     1      -0.581  -4.172   1.227  1.00  0.00    -0.354 N 
ATOM      8  HN  UNL     1      -0.744  -4.027   2.223  1.00  0.00     0.166 HD
BRANCH   4   9
HETATM    9  C   UNL     1       1.013  -3.558  -1.964  1.00  0.00     0.465 C 
HETATM   10  F   UNL     1       0.913  -2.216  -2.141  1.00  0.00    -0.191 F 
HETATM   11  F   UNL     1       2.328  -3.839  -1.780  1.00  0.00    -0.191 F 
ENDBRANCH   4   9
ENDBRANCH   2   3
ENDBRANCH   1   2
BRANCH   1  12
HETATM   12  N   UNL     1      -0.129  -1.596   2.752  1.00  0.00    -0.343 N 
HETATM   13  C   UNL     1      -0.642  -0.514   3.420  1.00  0.00     0.318 C 
HETATM   14  O   UNL     1      -0.323   0.632   3.105  1.00  0.00    -0.247 OA
HETATM   15  N   UNL     1      -1.509  -0.778   4.464  1.00  0.00    -0.333 N 
HETATM   16  C   UNL     1      -1.864  -2.096   4.999  1.00  0.00     0.137 C 
HETATM   17  C   UNL     1      -2.053   0.362   5.216  1.00  0.00     0.137 C 
HETATM   18  C   UNL     1      -3.376  -2.341   4.971  1.00  0.00     0.093 C 
HETATM   19  S   UNL     1      -4.297  -1.113   5.959  1.00  0.00    -0.166 SA
HETATM   20  C   UNL     1      -3.581   0.395   5.217  1.00  0.00     0.093 C 
HETATM   21  H   UNL     1      -0.737  -2.400   2.653  1.00  0.00     0.164 HD
ENDBRANCH   1  12
TORSDOF 4
