REMARK  10 active torsions:
REMARK  status: ('A' for Active; 'I' for Inactive)
REMARK    1  A    between atoms: N_2  and  C_13 
REMARK    2  A    between atoms: C_6  and  N_8 
REMARK    3  A    between atoms: N_8  and  C_16 
REMARK    4  A    between atoms: C_13  and  C_15 
REMARK    5  A    between atoms: C_14  and  C_16 
REMARK    6  A    between atoms: C_14  and  C_22 
REMARK    7  A    between atoms: C_14  and  C_23 
REMARK    8  A    between atoms: C_15  and  O_20 
REMARK    9  A    between atoms: C_22  and  O_26 
REMARK   10  A    between atoms: C_23  and  O_27 
ROOT
HETATM    1  C   UNL     1       0.293  -0.469  -0.266  1.00  0.00     0.122 A 
HETATM    2  N   UNL     1       1.335   1.452  -0.268  1.00  0.00    -0.324 N 
HETATM    3  C   UNL     1       0.084   0.903  -0.314  1.00  0.00     0.140 A 
HETATM    4  N   UNL     1       1.649  -0.743  -0.255  1.00  0.00    -0.346 N 
ATOM      5  HN  UNL     1       2.094  -1.661  -0.264  1.00  0.00     0.167 HD
HETATM    6  C   UNL     1      -0.849  -1.308  -0.268  1.00  0.00     0.135 A 
HETATM    7  C   UNL     1       2.240   0.427  -0.230  1.00  0.00     0.185 A 
HETATM    8  N   UNL     1      -1.090   1.549  -0.388  1.00  0.00    -0.336 N 
ATOM      9  HN  UNL     1      -1.194   2.563  -0.435  1.00  0.00     0.168 HD
HETATM   10  N   UNL     1      -2.061  -0.680  -0.341  1.00  0.00    -0.337 N 
ATOM     11  HN  UNL     1      -2.922  -1.227  -0.357  1.00  0.00     0.168 HD
HETATM   12  C   UNL     1      -2.113   0.669  -0.392  1.00  0.00     0.183 A 
ENDROOT
BRANCH   6  13
HETATM   13  N   UNL     1      -0.782  -2.692  -0.277  1.00  0.00    -0.369 N 
HETATM   14  C   UNL     1       0.269  -3.368   0.475  1.00  0.00     0.151 C 
BRANCH  13  15
HETATM   15  C   UNL     1      -1.948  -3.487  -0.660  1.00  0.00     0.137 C 
BRANCH  15  16
HETATM   16  C   UNL     1      -2.103  -3.672  -2.199  1.00  0.00     0.015 C 
HETATM   17  C   UNL     1      -2.397  -2.357  -2.946  1.00  0.00     0.021 C 
BRANCH  16  18
HETATM   18  C   UNL     1      -0.805  -4.253  -2.802  1.00  0.00     0.177 C 
BRANCH  18  19
HETATM   19  O   UNL     1      -0.397  -5.450  -2.148  1.00  0.00    -0.400 OA
HETATM   20  H   UNL     1       0.563  -5.527  -2.294  1.00  0.00     0.209 HD
ENDBRANCH  18  19
ENDBRANCH  16  18
BRANCH  16  21
HETATM   21  C   UNL     1      -3.307  -4.628  -2.390  1.00  0.00     0.177 C 
BRANCH  21  22
HETATM   22  O   UNL     1      -3.743  -4.705  -3.742  1.00  0.00    -0.400 OA
HETATM   23  H   UNL     1      -4.475  -4.065  -3.849  1.00  0.00     0.209 HD
ENDBRANCH  21  22
ENDBRANCH  16  21
ENDBRANCH  15  16
ENDBRANCH  13  15
ENDBRANCH   6  13
BRANCH   2  24
HETATM   24  C   UNL     1       1.668   2.858  -0.144  1.00  0.00     0.171 C 
BRANCH  24  25
HETATM   25  C   UNL     1       1.938   3.571  -1.476  1.00  0.00     0.097 C 
HETATM   26  C   UNL     1       2.969   2.927  -2.385  1.00  0.00     0.068 C 
HETATM   27  C   UNL     1       3.504   4.097  -3.192  1.00  0.00     0.170 C 
HETATM   28  O   UNL     1       3.331   5.281  -2.405  1.00  0.00    -0.388 OA
HETATM   29  C   UNL     1       2.588   4.937  -1.226  1.00  0.00     0.207 C 
BRANCH  25  30
HETATM   30  O   UNL     1       0.723   3.769  -2.210  1.00  0.00    -0.386 OA
HETATM   31  H   UNL     1       0.119   3.017  -2.059  1.00  0.00     0.210 HD
ENDBRANCH  25  30
ENDBRANCH  24  25
ENDBRANCH   2  24
TORSDOF 10
