REMARK  6 active torsions:
REMARK  status: ('A' for Active; 'I' for Inactive)
REMARK    1  A    between atoms: C_2  and  C_3 
REMARK    2  A    between atoms: C_3  and  C_4 
REMARK    3  A    between atoms: C_4  and  C_5 
REMARK       I    between atoms: C_5  and  N_7 
REMARK    4  A    between atoms: N_7  and  C_8 
REMARK    5  A    between atoms: C_8  and  C_9 
REMARK    6  A    between atoms: C_14  and  N_16 
ROOT
HETATM    1  C   UNL     1       8.611  -3.241   3.072  1.00  0.00    -0.036 A 
HETATM    2  C   UNL     1       9.400  -2.417   2.279  1.00  0.00     0.026 A 
HETATM    3  C   UNL     1      10.766  -2.613   2.312  1.00  0.00     0.090 A 
HETATM    4  N   UNL     1      11.379  -3.568   3.050  1.00  0.00    -0.352 N 
ATOM      5  HN  UNL     1      12.393  -3.670   3.021  1.00  0.00     0.166 HD
HETATM    6  C   UNL     1      10.632  -4.385   3.826  1.00  0.00     0.103 A 
HETATM    7  C   UNL     1       9.244  -4.228   3.842  1.00  0.00     0.057 A 
ENDROOT
BRANCH   1   8
HETATM    8  C   UNL     1       7.118  -3.079   3.125  1.00  0.00     0.161 C 
BRANCH   8   9
HETATM    9  N   UNL     1       6.446  -3.915   2.156  1.00  0.00    -0.357 N 
HETATM   10  C   UNL     1       5.073  -3.868   2.044  1.00  0.00     0.217 C 
HETATM   11  O   UNL     1       4.375  -3.168   2.768  1.00  0.00    -0.274 OA
HETATM   12  H   UNL     1       6.992  -4.513   1.551  1.00  0.00     0.162 HD
BRANCH  10  13
HETATM   13  C   UNL     1       4.505  -4.789   0.980  1.00  0.00     0.103 C 
BRANCH  13  14
HETATM   14  C   UNL     1       3.141  -4.294   0.494  1.00  0.00     0.009 C 
BRANCH  14  15
HETATM   15  C   UNL     1       2.560  -5.192  -0.597  1.00  0.00    -0.004 C 
HETATM   16  C   UNL     1       1.225  -4.661  -1.098  1.00  0.00     0.005 C 
ENDBRANCH  14  15
ENDBRANCH  13  14
ENDBRANCH  10  13
ENDBRANCH   8   9
ENDBRANCH   1   8
BRANCH   6  17
HETATM   17  N   UNL     1      11.276  -5.300   4.635  1.00  0.00    -0.363 N 
HETATM   18  C   UNL     1      12.749  -5.358   4.633  1.00  0.00     0.150 C 
HETATM   19  C   UNL     1      13.240  -6.638   3.938  1.00  0.00     0.187 C 
HETATM   20  O   UNL     1      12.647  -7.817   4.514  1.00  0.00    -0.388 OA
HETATM   21  C   UNL     1      11.218  -7.756   4.400  1.00  0.00     0.187 C 
HETATM   22  C   UNL     1      10.646  -6.531   5.131  1.00  0.00     0.150 C 
ENDBRANCH   6  17
TORSDOF 6
