REMARK  5 active torsions:
REMARK  status: ('A' for Active; 'I' for Inactive)
REMARK    1  A    between atoms: C_2  and  C_3 
REMARK    2  A    between atoms: C_2  and  N_10 
REMARK    3  A    between atoms: C_3  and  N_4 
REMARK       I    between atoms: N_10  and  C_11 
REMARK    4  A    between atoms: C_11  and  C_13 
REMARK    5  A    between atoms: C_13  and  C_14 
ROOT
HETATM    1  N   UNL     1       3.057  -1.238  -0.690  1.00  0.00    -0.355 N 
HETATM    2  C   UNL     1       4.387  -1.203  -1.056  1.00  0.00     0.218 C 
HETATM    3  O   UNL     1       5.160  -0.318  -0.701  1.00  0.00    -0.274 OA
HETATM    4  H   UNL     1       2.443  -1.788  -1.277  1.00  0.00     0.162 HD
ENDROOT
BRANCH   1   5
HETATM    5  C   UNL     1       2.453  -0.165   0.114  1.00  0.00     0.100 C 
HETATM    6  C   UNL     1       0.947  -0.418   0.240  1.00  0.00     0.034 C 
BRANCH   5   7
HETATM    7  C   UNL     1       3.123  -0.045   1.497  1.00  0.00     0.172 C 
BRANCH   7   8
HETATM    8  N   UNL     1       2.658   1.093   2.264  1.00  0.00    -0.302 N 
HETATM    9  C   UNL     1       3.163   2.361   2.233  1.00  0.00     0.111 A 
HETATM   10  C   UNL     1       2.419   3.089   3.129  1.00  0.00     0.037 A 
HETATM   11  C   UNL     1       1.497   2.168   3.659  1.00  0.00     0.108 A 
HETATM   12  N   UNL     1       1.644   0.946   3.139  1.00  0.00    -0.310 N 
ATOM     13  HN  UNL     1       1.114   0.101   3.354  1.00  0.00     0.186 HD
ENDBRANCH   7   8
ENDBRANCH   5   7
ENDBRANCH   1   5
BRANCH   2  14
HETATM   14  C   UNL     1       4.835  -2.357  -1.929  1.00  0.00     0.111 C 
BRANCH  14  15
HETATM   15  C   UNL     1       4.834  -2.057  -3.429  1.00  0.00     0.017 C 
HETATM   16  C   UNL     1       5.668  -0.829  -3.830  1.00  0.00     0.012 C 
HETATM   17  C   UNL     1       4.673   0.322  -3.986  1.00  0.00     0.027 C 
HETATM   18  C   UNL     1       3.393  -0.399  -4.265  1.00  0.00    -0.030 C 
HETATM   19  C   UNL     1       3.479  -1.701  -3.969  1.00  0.00    -0.026 C 
ENDBRANCH  14  15
ENDBRANCH   2  14
TORSDOF 5
