REMARK  6 active torsions:
REMARK  status: ('A' for Active; 'I' for Inactive)
REMARK    1  A    between atoms: N_1  and  C_9 
REMARK    2  A    between atoms: N_2  and  C_8 
REMARK    3  A    between atoms: C_7  and  C_12 
REMARK    4  A    between atoms: C_9  and  C_10 
REMARK       I    between atoms: C_10  and  N_11 
REMARK    5  A    between atoms: N_11  and  C_12 
REMARK    6  A    between atoms: C_15  and  O_23 
ROOT
HETATM    1  C   UNL     1      -1.178   2.392  -0.093  1.00  0.00     0.240 C 
ENDROOT
BRANCH   1   2
HETATM    2  N   UNL     1      -0.471   3.466   0.584  1.00  0.00    -0.255 N 
HETATM    3  C   UNL     1      -0.733   3.642   1.950  1.00  0.00     0.334 C 
HETATM    4  N   UNL     1      -0.181   4.790   2.523  1.00  0.00    -0.279 N 
HETATM    5  O   UNL     1      -1.421   2.846   2.590  1.00  0.00    -0.246 OA
HETATM    6  C   UNL     1       0.795   5.517   1.868  1.00  0.00     0.146 C 
HETATM    7  C   UNL     1       1.224   5.185   0.649  1.00  0.00     0.200 C 
HETATM    8  C   UNL     1       0.593   4.063  -0.076  1.00  0.00     0.292 C 
HETATM    9  F   UNL     1       2.206   5.857   0.029  1.00  0.00    -0.199 F 
HETATM   10  O   UNL     1       1.041   3.689  -1.162  1.00  0.00    -0.264 OA
BRANCH   4  11
HETATM   11  C   UNL     1      -0.787   5.279   3.777  1.00  0.00     0.232 C 
HETATM   12  O   UNL     1      -0.259   6.563   4.129  1.00  0.00    -0.366 OA
HETATM   13  C   UNL     1      -0.100   6.644   5.545  1.00  0.00     0.170 C 
HETATM   14  C   UNL     1      -0.538   5.334   6.154  1.00  0.00     0.031 C 
HETATM   15  C   UNL     1      -0.620   4.377   4.989  1.00  0.00     0.056 C 
ENDBRANCH   4  11
ENDBRANCH   1   2
BRANCH   1  16
HETATM   16  C   UNL     1      -2.694   2.584   0.049  1.00  0.00     0.236 C 
HETATM   17  N   UNL     1      -3.375   1.424   0.361  1.00  0.00    -0.351 N 
HETATM   18  H   UNL     1      -2.834   0.647   0.711  1.00  0.00     0.163 HD
HETATM   19  O   UNL     1      -3.244   3.669  -0.113  1.00  0.00    -0.272 OA
BRANCH  17  20
HETATM   20  C   UNL     1      -4.826   1.389   0.584  1.00  0.00     0.116 C 
HETATM   21  C   UNL     1      -5.119   1.328   2.084  1.00  0.00     0.037 C 
BRANCH  20  22
HETATM   22  C   UNL     1      -5.467   0.277  -0.243  1.00  0.00    -0.002 C 
HETATM   23  C   UNL     1      -6.655   0.372  -0.993  1.00  0.00     0.076 C 
HETATM   24  C   UNL     1      -7.068  -0.736  -1.766  1.00  0.00     0.038 C 
HETATM   25  C   UNL     1      -6.300  -1.892  -1.891  1.00  0.00     0.009 C 
HETATM   26  C   UNL     1      -5.105  -1.991  -1.197  1.00  0.00    -0.061 C 
HETATM   27  C   UNL     1      -4.756  -0.958  -0.317  1.00  0.00     0.018 C 
HETATM   28  C   UNL     1      -4.172  -3.136  -1.458  1.00  0.00     0.048 C 
BRANCH  23  29
HETATM   29  O   UNL     1      -7.577   1.367  -1.120  1.00  0.00    -0.355 OA
HETATM   30  C   UNL     1      -7.311   2.736  -0.901  1.00  0.00     0.210 C 
ENDBRANCH  23  29
ENDBRANCH  20  22
ENDBRANCH  17  20
ENDBRANCH   1  16
TORSDOF 6
