REMARK  6 active torsions:
REMARK  status: ('A' for Active; 'I' for Inactive)
REMARK    1  A    between atoms: C_7  and  O_8 
REMARK    2  A    between atoms: O_8  and  C_9 
REMARK    3  A    between atoms: C_9  and  C_10 
REMARK    4  A    between atoms: C_10  and  N_11 
REMARK    5  A    between atoms: N_11  and  C_12 
REMARK    6  A    between atoms: C_15  and  C_19 
REMARK       I    between atoms: C_19  and  N_21 
ROOT
HETATM    1  C   UNL     1       2.747  -3.773   5.193  1.00  0.00     0.079 A 
HETATM    2  C   UNL     1       3.294  -3.664   6.466  1.00  0.00     0.043 A 
HETATM    3  C   UNL     1       2.982  -4.622   7.429  1.00  0.00     0.022 A 
HETATM    4  C   UNL     1       2.121  -5.673   7.113  1.00  0.00     0.047 A 
HETATM    5  C   UNL     1       1.568  -5.666   5.846  1.00  0.00     0.106 A 
HETATM    6  N   UNL     1       1.884  -4.765   4.879  1.00  0.00    -0.356 N 
ATOM      7  HN  UNL     1       1.482  -4.835   3.944  1.00  0.00     0.166 HD
ENDROOT
BRANCH   1   8
HETATM    8  N   UNL     1       3.143  -2.843   4.228  1.00  0.00    -0.277 NA
HETATM    9  H   UNL     1       2.983  -1.898   4.558  1.00  0.00     0.129 HD
BRANCH   8  10
HETATM   10  C   UNL     1       2.607  -3.095   2.891  1.00  0.00     0.120 C 
BRANCH  10  11
HETATM   11  C   UNL     1       3.039  -2.000   1.911  1.00  0.00     0.182 C 
BRANCH  11  12
HETATM   12  O   UNL     1       4.449  -2.052   1.667  1.00  0.00    -0.384 OA
BRANCH  12  13
HETATM   13  C   UNL     1       4.915  -1.023   0.787  1.00  0.00     0.125 C 
HETATM   14  C   UNL     1       4.333  -1.164  -0.637  1.00  0.00     0.010 C 
HETATM   15  C   UNL     1       4.504  -2.581  -1.204  1.00  0.00     0.012 C 
HETATM   16  C   UNL     1       4.927  -0.099  -1.566  1.00  0.00     0.007 C 
HETATM   17  C   UNL     1       6.452  -0.122  -1.589  1.00  0.00     0.001 C 
HETATM   18  C   UNL     1       7.041  -0.028  -0.185  1.00  0.00     0.002 C 
HETATM   19  C   UNL     1       6.450  -1.065   0.768  1.00  0.00     0.032 C 
ENDBRANCH  12  13
ENDBRANCH  11  12
ENDBRANCH  10  11
ENDBRANCH   8  10
ENDBRANCH   1   8
BRANCH   4  20
HETATM   20  C   UNL     1       1.775  -6.645   8.171  1.00  0.00     0.254 C 
HETATM   21  O   UNL     1       1.701  -6.190   9.313  1.00  0.00    -0.267 OA
HETATM   22  N   UNL     1       1.577  -8.003   7.920  1.00  0.00    -0.357 N 
HETATM   23  C   UNL     1       1.627  -8.671   6.625  1.00  0.00     0.152 C 
HETATM   24  C   UNL     1       1.196  -8.854   9.039  1.00  0.00     0.152 C 
ENDBRANCH   4  20
TORSDOF 6
