REMARK  4 active torsions:
REMARK  status: ('A' for Active; 'I' for Inactive)
REMARK    1  A    between atoms: C_5  and  N_14 
REMARK    2  A    between atoms: C_9  and  C_10 
REMARK    3  A    between atoms: C_10  and  C_11 
REMARK    4  A    between atoms: C_11  and  O_13 
ROOT
HETATM    1  C   UNL     1       1.107  -0.402  -0.007  1.00  0.00     0.069 C 
HETATM    2  C   UNL     1       2.581  -0.096  -0.011  1.00  0.00     0.035 A 
HETATM    3  N   UNL     1       3.375  -1.220   0.010  1.00  0.00    -0.195 N 
ATOM      4  HN  UNL     1       2.949  -2.147   0.022  1.00  0.00     0.184 HD
HETATM    5  C   UNL     1       4.664  -1.097   0.014  1.00  0.00     0.683 A 
HETATM    6  N   UNL     1       5.243   0.141   0.015  1.00  0.00    -0.155 N 
HETATM    7  C   UNL     1       4.527   1.292   0.044  1.00  0.00     0.268 A 
HETATM    8  O   UNL     1       5.063   2.398   0.113  1.00  0.00    -0.267 OA
HETATM    9  C   UNL     1       3.061   1.165  -0.007  1.00  0.00     0.043 A 
HETATM   10  H   UNL     1       6.240   0.229   0.075  1.00  0.00     0.187 HD
ENDROOT
BRANCH   5  11
HETATM   11  N   UNL     1       5.496  -2.192   0.023  1.00  0.00    -0.217 N 
HETATM   12  C   UNL     1       4.961  -3.552   0.096  1.00  0.00     0.141 C 
HETATM   13  C   UNL     1       6.095  -4.463  -0.372  1.00  0.00     0.022 C 
HETATM   14  C   UNL     1       7.059  -3.533  -1.086  1.00  0.00     0.022 C 
HETATM   15  C   UNL     1       6.905  -2.220  -0.335  1.00  0.00     0.141 C 
ENDBRANCH   5  11
BRANCH   9  16
HETATM   16  C   UNL     1       2.267   2.441   0.057  1.00  0.00     0.156 C 
BRANCH  16  17
HETATM   17  C   UNL     1       2.414   3.364  -1.143  1.00  0.00     0.143 C 
HETATM   18  O   UNL     1       1.477   3.653  -1.878  1.00  0.00    -0.650 OA
BRANCH  17  19
HETATM   19  O   UNL     1       3.637   3.910  -1.315  1.00  0.00    -0.776 OA
HETATM   20  H   UNL     1       4.319   3.590  -0.675  1.00  0.00     0.167 HD
ENDBRANCH  17  19
ENDBRANCH  16  17
ENDBRANCH   9  16
TORSDOF 4
