REMARK  3 active torsions:
REMARK  status: ('A' for Active; 'I' for Inactive)
REMARK    1  A    between atoms: S_2  and  N_5 
REMARK    2  A    between atoms: C_8  and  N_11 
REMARK       I    between atoms: N_11  and  C_12 
REMARK       I    between atoms: C_12  and  N_14 
REMARK    3  A    between atoms: N_14  and  C_15 
ROOT
HETATM    1  N   UNL     1       6.135   2.597  -2.001  1.00  0.00    -0.338 N 
HETATM    2  C   UNL     1       7.357   2.407  -2.617  1.00  0.00     0.321 C 
HETATM    3  O   UNL     1       7.637   1.384  -3.227  1.00  0.00    -0.247 OA
HETATM    4  N   UNL     1       8.170   3.507  -2.480  1.00  0.00    -0.306 N 
HETATM    5  H   UNL     1       6.168   3.136  -1.149  1.00  0.00     0.164 HD
HETATM    6  H   UNL     1       7.747   4.380  -2.206  1.00  0.00     0.171 HD
ENDROOT
BRANCH   1   7
HETATM    7  C   UNL     1       5.122   1.547  -2.109  1.00  0.00     0.088 C 
HETATM    8  C   UNL     1       3.713   2.143  -2.015  1.00  0.00     0.041 C 
HETATM    9  C   UNL     1       3.212   2.297  -0.588  1.00  0.00     0.109 C 
HETATM   10  N   UNL     1       3.410   1.062   0.210  1.00  0.00    -0.211 NA
HETATM   11  C   UNL     1       4.859   0.718   0.275  1.00  0.00     0.109 C 
HETATM   12  C   UNL     1       5.394   0.408  -1.115  1.00  0.00     0.041 C 
BRANCH  10  13
HETATM   13  S   UNL     1       2.383  -0.274  -0.064  1.00  0.00     0.207 S 
HETATM   14  C   UNL     1       0.778   0.343   0.385  1.00  0.00     0.180 C 
HETATM   15  O   UNL     1       2.742  -1.298   0.894  1.00  0.00    -0.212 OA
HETATM   16  O   UNL     1       2.369  -0.560  -1.482  1.00  0.00    -0.212 OA
ENDBRANCH  10  13
ENDBRANCH   1   7
BRANCH   4  17
HETATM   17  C   UNL     1       9.454   3.547  -2.986  1.00  0.00     0.070 A 
HETATM   18  C   UNL     1      10.279   2.521  -3.499  1.00  0.00     0.138 A 
HETATM   19  N   UNL     1      11.469   2.978  -3.902  1.00  0.00    -0.310 N 
HETATM   20  N   UNL     1      11.395   4.295  -3.663  1.00  0.00    -0.310 N 
ATOM     21  HN  UNL     1      12.247   2.450  -4.297  1.00  0.00     0.186 HD
HETATM   22  C   UNL     1      10.215   4.686  -3.090  1.00  0.00     0.138 A 
HETATM   23  H   UNL     1      12.187   4.873  -3.921  1.00  0.00     0.186 HD
ENDBRANCH   4  17
TORSDOF 3
