REMARK  4 active torsions:
REMARK  status: ('A' for Active; 'I' for Inactive)
REMARK    1  A    between atoms: C_1  and  C_2 
REMARK       I    between atoms: C_2  and  N_6 
REMARK    2  A    between atoms: C_3  and  N_11 
REMARK    3  A    between atoms: C_10  and  C_16 
REMARK    4  A    between atoms: O_14  and  C_16 
ROOT
HETATM    1  C   UNL     1       1.020  -0.675   0.319  1.00  0.00     0.144 A 
HETATM    2  C   UNL     1      -0.270  -1.064  -0.050  1.00  0.00     0.077 A 
HETATM    3  N   UNL     1       0.960   0.623   0.690  1.00  0.00    -0.292 N 
ATOM      4  HN  UNL     1       1.747   1.188   1.010  1.00  0.00     0.187 HD
HETATM    5  C   UNL     1      -1.071   0.044   0.115  1.00  0.00     0.141 A 
HETATM    6  N   UNL     1      -0.291   1.039   0.568  1.00  0.00    -0.305 N 
HETATM    7  C   UNL     1      -0.737   2.396   0.859  1.00  0.00     0.177 C 
ENDROOT
BRANCH   1   8
HETATM    8  C   UNL     1       2.259  -1.507   0.255  1.00  0.00     0.274 C 
HETATM    9  N   UNL     1       3.534  -0.986   0.198  1.00  0.00    -0.340 N 
HETATM   10  C   UNL     1       4.746  -1.785  -0.039  1.00  0.00     0.111 C 
HETATM   11  C   UNL     1       3.876   0.425   0.172  1.00  0.00     0.127 C 
HETATM   12  C   UNL     1       5.834  -0.729  -0.335  1.00  0.00     0.029 C 
HETATM   13  C   UNL     1       5.024   0.471  -0.811  1.00  0.00     0.022 C 
HETATM   14  O   UNL     1       2.110  -2.717   0.201  1.00  0.00    -0.266 OA
BRANCH  10  15
HETATM   15  C   UNL     1       4.628  -2.777  -1.224  1.00  0.00     0.189 C 
BRANCH  15  16
HETATM   16  O   UNL     1       4.237  -2.139  -2.406  1.00  0.00    -0.399 OA
HETATM   17  H   UNL     1       4.201  -2.852  -3.097  1.00  0.00     0.209 HD
ENDBRANCH  15  16
ENDBRANCH  10  15
ENDBRANCH   1   8
BRANCH   2  18
HETATM   18  N   UNL     1      -0.707  -2.309  -0.560  1.00  0.00    -0.396 N 
HETATM   19  H   UNL     1      -0.055  -3.089  -0.722  1.00  0.00     0.156 HD
HETATM   20  H   UNL     1      -1.688  -2.432  -0.840  1.00  0.00     0.156 HD
ENDBRANCH   2  18
TORSDOF 4
