REMARK  4 active torsions:
REMARK  status: ('A' for Active; 'I' for Inactive)
REMARK       I    between atoms: N_2  and  C_3 
REMARK    1  A    between atoms: C_3  and  C_5 
REMARK    2  A    between atoms: C_5  and  N_7 
REMARK       I    between atoms: N_7  and  C_8 
REMARK    3  A    between atoms: C_8  and  C_10 
REMARK    4  A    between atoms: C_10  and  N_11 
ROOT
HETATM    1  N   UNL     1       5.288   2.093   1.691  1.00  0.00    -0.347 N 
HETATM    2  C   UNL     1       6.553   1.954   2.209  1.00  0.00     0.238 C 
HETATM    3  O   UNL     1       7.249   0.966   1.978  1.00  0.00    -0.272 OA
HETATM    4  H   UNL     1       4.690   2.877   1.943  1.00  0.00     0.163 HD
ENDROOT
BRANCH   2   5
HETATM    5  C   UNL     1       7.027   3.083   3.092  1.00  0.00     0.252 C 
BRANCH   5   6
HETATM    6  N   UNL     1       8.262   3.657   2.603  1.00  0.00    -0.278 N 
HETATM    7  C   UNL     1       9.468   3.049   2.434  1.00  0.00     0.201 A 
HETATM    8  N   UNL     1      10.356   3.933   2.041  1.00  0.00    -0.346 N 
HETATM    9  C   UNL     1       9.634   5.091   1.991  1.00  0.00     0.198 A 
ATOM     10  HN  UNL     1      11.343   3.790   1.826  1.00  0.00     0.167 HD
HETATM   11  N   UNL     1       8.349   4.977   2.335  1.00  0.00    -0.293 N 
ATOM     12  HN  UNL     1       7.626   5.695   2.383  1.00  0.00     0.188 HD
ENDBRANCH   5   6
ENDBRANCH   2   5
BRANCH   1  13
HETATM   13  C   UNL     1       4.706   1.091   0.803  1.00  0.00     0.172 C 
HETATM   14  C   UNL     1       5.161   1.319  -0.635  1.00  0.00     0.042 C 
BRANCH  13  15
HETATM   15  C   UNL     1       3.170   1.153   0.912  1.00  0.00     0.239 C 
HETATM   16  N   UNL     1       2.505   0.173   0.205  1.00  0.00    -0.364 N 
HETATM   17  C   UNL     1       1.069   0.070   0.232  1.00  0.00     0.149 C 
HETATM   18  H   UNL     1       3.033  -0.548  -0.272  1.00  0.00     0.161 HD
HETATM   19  O   UNL     1       2.594   2.010   1.581  1.00  0.00    -0.271 OA
ENDBRANCH  13  15
ENDBRANCH   1  13
TORSDOF 4
