REMARK  3 active torsions:
REMARK  status: ('A' for Active; 'I' for Inactive)
REMARK    1  A    between atoms: S_2  and  C_3 
REMARK    2  A    between atoms: C_7  and  N_8 
REMARK       I    between atoms: N_8  and  C_9 
REMARK       I    between atoms: C_9  and  N_11 
REMARK    3  A    between atoms: N_11  and  C_12 
ROOT
HETATM    1  N   UNL     1       4.397   2.212   4.999  1.00  0.00    -0.288 N 
HETATM    2  C   UNL     1       5.070   1.755   6.102  1.00  0.00     0.322 C 
HETATM    3  O   UNL     1       5.811   0.780   6.136  1.00  0.00    -0.247 OA
HETATM    4  N   UNL     1       4.809   2.507   7.232  1.00  0.00    -0.335 N 
HETATM    5  H   UNL     1       4.044   3.155   4.981  1.00  0.00     0.172 HD
HETATM    6  H   UNL     1       4.517   3.463   7.094  1.00  0.00     0.164 HD
ENDROOT
BRANCH   1   7
HETATM    7  C   UNL     1       4.369   1.564   3.788  1.00  0.00     0.171 A 
HETATM    8  S   UNL     1       4.767  -0.089   3.587  1.00  0.00     0.025 SA
HETATM    9  N   UNL     1       4.469  -0.067   1.947  1.00  0.00    -0.304 N 
HETATM   10  C   UNL     1       4.102   1.181   1.654  1.00  0.00     0.152 A 
ATOM     11  HN  UNL     1       4.551  -0.850   1.299  1.00  0.00     0.176 HD
HETATM   12  N   UNL     1       3.977   2.125   2.668  1.00  0.00    -0.315 N 
ATOM     13  HN  UNL     1       3.641   3.082   2.560  1.00  0.00     0.170 HD
BRANCH  10  14
HETATM   14  S   UNL     1       3.811   1.655  -0.012  1.00  0.00    -0.098 SA
HETATM   15  C   UNL     1       4.942   0.534  -0.871  1.00  0.00     0.099 C 
ENDBRANCH  10  14
ENDBRANCH   1   7
BRANCH   4  16
HETATM   16  C   UNL     1       5.484   2.183   8.482  1.00  0.00     0.109 C 
HETATM   17  C   UNL     1       5.063   0.811   9.042  1.00  0.00     0.029 C 
HETATM   18  C   UNL     1       4.194   0.756  10.299  1.00  0.00     0.006 C 
HETATM   19  C   UNL     1       3.867   2.057  11.024  1.00  0.00     0.027 C 
HETATM   20  C   UNL     1       4.563   3.281  10.539  1.00  0.00    -0.029 C 
HETATM   21  C   UNL     1       5.275   3.338   9.409  1.00  0.00    -0.006 C 
ENDBRANCH   4  16
TORSDOF 3
