REMARK  4 active torsions:
REMARK  status: ('A' for Active; 'I' for Inactive)
REMARK    1  A    between atoms: C_2  and  C_3 
REMARK    2  A    between atoms: C_2  and  N_10 
REMARK    3  A    between atoms: C_3  and  N_4 
REMARK       I    between atoms: N_10  and  C_11 
REMARK    4  A    between atoms: C_11  and  C_13 
ROOT
HETATM    1  N   UNL     1       3.015  -1.164   0.891  1.00  0.00    -0.355 N 
HETATM    2  C   UNL     1       4.368  -1.429   0.860  1.00  0.00     0.224 C 
HETATM    3  O   UNL     1       5.151  -0.752   0.204  1.00  0.00    -0.273 OA
HETATM    4  H   UNL     1       2.395  -1.867   1.277  1.00  0.00     0.162 HD
ENDROOT
BRANCH   1   5
HETATM    5  C   UNL     1       2.420  -0.069   0.103  1.00  0.00     0.098 C 
HETATM    6  C   UNL     1       0.896  -0.141   0.232  1.00  0.00     0.034 C 
BRANCH   5   7
HETATM    7  C   UNL     1       2.960   1.313   0.541  1.00  0.00     0.153 C 
BRANCH   7   8
HETATM    8  N   UNL     1       2.496   2.429  -0.261  1.00  0.00    -0.350 N 
HETATM    9  C   UNL     1       1.463   3.271   0.043  1.00  0.00     0.108 A 
HETATM   10  C   UNL     1       1.465   4.210  -0.963  1.00  0.00     0.106 A 
HETATM   11  N   UNL     1       2.471   3.959  -1.859  1.00  0.00    -0.361 N 
HETATM   12  C   UNL     1       3.084   2.889  -1.405  1.00  0.00     0.182 A 
ATOM     13  HN  UNL     1       2.696   4.490  -2.700  1.00  0.00     0.166 HD
ENDBRANCH   7   8
ENDBRANCH   5   7
ENDBRANCH   1   5
BRANCH   2  14
HETATM   14  C   UNL     1       4.812  -2.568   1.757  1.00  0.00     0.104 C 
HETATM   15  C   UNL     1       6.326  -2.726   1.720  1.00  0.00     0.139 C 
HETATM   16  N   UNL     1       6.540  -4.126   1.967  1.00  0.00    -0.356 N 
HETATM   17  C   UNL     1       7.869  -4.694   1.970  1.00  0.00     0.152 C 
HETATM   18  C   UNL     1       5.424  -4.879   1.633  1.00  0.00     0.220 C 
HETATM   19  O   UNL     1       5.362  -6.095   1.557  1.00  0.00    -0.273 OA
HETATM   20  C   UNL     1       4.290  -3.934   1.316  1.00  0.00     0.118 C 
ENDBRANCH   2  14
TORSDOF 4
