REMARK  6 active torsions:
REMARK  status: ('A' for Active; 'I' for Inactive)
REMARK    1  A    between atoms: O_1  and  C_2 
REMARK    2  A    between atoms: C_2  and  C_3 
REMARK    3  A    between atoms: N_12  and  C_13 
REMARK    4  A    between atoms: C_13  and  C_14 
REMARK    5  A    between atoms: C_14  and  O_15 
REMARK    6  A    between atoms: C_14  and  C_16 
ROOT
HETATM    1  C   UNL     1       2.907  -1.218  -0.637  1.00  0.00     0.108 A 
HETATM    2  N   UNL     1       3.779  -1.359  -1.619  1.00  0.00    -0.342 N 
ATOM      3  HN  UNL     1       4.295  -0.618  -2.093  1.00  0.00     0.167 HD
HETATM    4  C   UNL     1       3.850  -2.704  -1.871  1.00  0.00     0.060 A 
HETATM    5  C   UNL     1       4.634  -3.390  -2.812  1.00  0.00     0.032 A 
HETATM    6  C   UNL     1       4.544  -4.785  -2.881  1.00  0.00     0.002 A 
HETATM    7  C   UNL     1       3.690  -5.483  -2.027  1.00  0.00     0.002 A 
HETATM    8  C   UNL     1       2.906  -4.816  -1.076  1.00  0.00     0.032 A 
HETATM    9  C   UNL     1       3.008  -3.417  -1.024  1.00  0.00     0.062 A 
HETATM   10  N   UNL     1       2.413  -2.446  -0.242  1.00  0.00    -0.330 N 
ENDROOT
BRANCH  10  11
HETATM   11  C   UNL     1       1.523  -2.693   0.885  1.00  0.00     0.167 C 
BRANCH  11  12
HETATM   12  C   UNL     1       0.028  -2.674   0.511  1.00  0.00     0.171 C 
BRANCH  12  13
HETATM   13  O   UNL     1      -0.342  -3.793  -0.298  1.00  0.00    -0.389 OA
HETATM   14  H   UNL     1      -0.063  -4.602   0.163  1.00  0.00     0.210 HD
ENDBRANCH  12  13
BRANCH  12  15
HETATM   15  C   UNL     1      -0.909  -2.616   1.712  1.00  0.00    -0.006 A 
HETATM   16  C   UNL     1      -1.744  -1.485   1.849  1.00  0.00     0.011 A 
HETATM   17  C   UNL     1      -2.656  -1.377   2.902  1.00  0.00     0.001 A 
HETATM   18  C   UNL     1      -2.751  -2.390   3.848  1.00  0.00     0.002 A 
HETATM   19  C   UNL     1      -1.933  -3.513   3.738  1.00  0.00     0.024 A 
HETATM   20  C   UNL     1      -1.026  -3.630   2.678  1.00  0.00     0.043 A 
HETATM   21 CL   UNL     1      -0.097  -5.087   2.609  1.00  0.00    -0.084 Cl
ENDBRANCH  12  15
ENDBRANCH  11  12
ENDBRANCH  10  11
BRANCH   1  22
HETATM   22  C   UNL     1       2.557   0.083  -0.001  1.00  0.00     0.240 C 
BRANCH  22  23
HETATM   23  O   UNL     1       1.144   0.243  -0.042  1.00  0.00    -0.393 OA
HETATM   24  H   UNL     1       0.978   1.195   0.059  1.00  0.00     0.209 HD
ENDBRANCH  22  23
ENDBRANCH   1  22
TORSDOF 6
