REMARK  5 active torsions:
REMARK  status: ('A' for Active; 'I' for Inactive)
REMARK    1  A    between atoms: C_2  and  N_3 
REMARK    2  A    between atoms: C_2  and  C_9 
REMARK    3  A    between atoms: N_3  and  C_4 
REMARK    4  A    between atoms: C_4  and  C_6 
REMARK       I    between atoms: C_6  and  N_8 
REMARK    5  A    between atoms: C_9  and  N_11 
ROOT
HETATM    1  C   UNL     1       0.900   0.108  -0.196  1.00  0.00     0.045 C 
HETATM    2  C   UNL     1       2.422  -0.034  -0.043  1.00  0.00     0.241 C 
ENDROOT
BRANCH   2   3
HETATM    3  N   UNL     1       2.758  -0.888   1.124  1.00  0.00     0.103 N 
HETATM    4  H   UNL     1       2.374  -0.441   1.962  1.00  0.00     0.317 HD
BRANCH   3   5
HETATM    5  C   UNL     1       2.274  -2.297   1.138  1.00  0.00     0.307 C 
HETATM    6  C   UNL     1       2.846  -3.201   0.050  1.00  0.00     0.053 C 
BRANCH   5   7
HETATM    7  C   UNL     1       2.672  -2.935   2.489  1.00  0.00     0.248 C 
HETATM    8  O   UNL     1       2.005  -3.794   3.056  1.00  0.00    -0.271 OA
HETATM    9  N   UNL     1       3.872  -2.524   2.986  1.00  0.00    -0.368 N 
HETATM   10  H   UNL     1       4.412  -1.825   2.490  1.00  0.00     0.159 HD
HETATM   11  H   UNL     1       4.223  -2.934   3.843  1.00  0.00     0.159 HD
ENDBRANCH   5   7
ENDBRANCH   3   5
ENDBRANCH   2   3
BRANCH   2  12
HETATM   12  C   UNL     1       3.166  -0.360  -1.381  1.00  0.00     0.136 C 
HETATM   13  C   UNL     1       2.891   0.654  -2.503  1.00  0.00     0.036 C 
BRANCH  12  14
HETATM   14  N   UNL     1       4.617  -0.513  -1.227  1.00  0.00    -0.297 N 
HETATM   15  C   UNL     1       5.463   0.149  -0.378  1.00  0.00     0.112 A 
HETATM   16  C   UNL     1       6.721  -0.351  -0.618  1.00  0.00     0.037 A 
HETATM   17  C   UNL     1       6.542  -1.286  -1.650  1.00  0.00     0.108 A 
HETATM   18  N   UNL     1       5.268  -1.378  -2.038  1.00  0.00    -0.310 N 
ATOM     19  HN  UNL     1       4.876  -1.964  -2.775  1.00  0.00     0.186 HD
ENDBRANCH  12  14
ENDBRANCH   2  12
TORSDOF 5
