REMARK  11 active torsions:
REMARK  status: ('A' for Active; 'I' for Inactive)
REMARK    1  A    between atoms: N_1  and  C_8 
REMARK    2  A    between atoms: C_6  and  N_9 
REMARK    3  A    between atoms: N_9  and  C_19 
REMARK    4  A    between atoms: C_14  and  C_24 
REMARK    5  A    between atoms: C_14  and  C_25 
REMARK    6  A    between atoms: N_17  and  C_21 
REMARK    7  A    between atoms: C_19  and  C_20 
REMARK    8  A    between atoms: C_20  and  C_21 
REMARK    9  A    between atoms: C_20  and  O_23 
REMARK   10  A    between atoms: C_24  and  O_29 
REMARK   11  A    between atoms: C_25  and  O_30 
ROOT
HETATM    1  N   UNL     1       1.314   1.116  -0.076  1.00  0.00    -0.322 N 
HETATM    2  C   UNL     1       0.056  -0.700   0.147  1.00  0.00     0.122 A 
HETATM    3  C   UNL     1      -0.016   0.699  -0.023  1.00  0.00     0.140 A 
HETATM    4  N   UNL     1       1.380  -1.114   0.065  1.00  0.00    -0.346 N 
ATOM      5  HN  UNL     1       1.728  -2.073   0.089  1.00  0.00     0.167 HD
HETATM    6  C   UNL     1      -1.165  -1.485   0.340  1.00  0.00     0.135 A 
HETATM    7  C   UNL     1       2.097  -0.006  -0.051  1.00  0.00     0.185 A 
HETATM    8  N   UNL     1      -1.153   1.397  -0.124  1.00  0.00    -0.336 N 
ATOM      9  HN  UNL     1      -1.203   2.408  -0.250  1.00  0.00     0.168 HD
HETATM   10  N   UNL     1      -2.314  -0.773   0.194  1.00  0.00    -0.337 N 
ATOM     11  HN  UNL     1      -3.221  -1.235   0.254  1.00  0.00     0.168 HD
HETATM   12  C   UNL     1      -2.234   0.573  -0.035  1.00  0.00     0.183 A 
ENDROOT
BRANCH   6  13
HETATM   13  N   UNL     1      -1.185  -2.858   0.598  1.00  0.00    -0.367 N 
HETATM   14  C   UNL     1      -0.022  -3.338   1.380  1.00  0.00     0.151 C 
BRANCH  13  15
HETATM   15  C   UNL     1      -2.318  -3.808   0.860  1.00  0.00     0.157 C 
BRANCH  15  16
HETATM   16  C   UNL     1      -3.822  -3.676   0.602  1.00  0.00     0.153 C 
BRANCH  16  17
HETATM   17  C   UNL     1      -4.409  -3.908  -0.820  1.00  0.00     0.150 C 
BRANCH  17  18
HETATM   18  N   UNL     1      -5.873  -3.978  -0.689  1.00  0.00    -0.406 N 
HETATM   19  C   UNL     1      -6.621  -2.755  -0.460  1.00  0.00     0.143 C 
HETATM   20  C   UNL     1      -7.750  -2.970   0.559  1.00  0.00     0.187 C 
HETATM   21  O   UNL     1      -8.565  -4.115   0.299  1.00  0.00    -0.388 OA
HETATM   22  C   UNL     1      -7.860  -5.316  -0.022  1.00  0.00     0.187 C 
HETATM   23  C   UNL     1      -6.674  -5.147  -1.006  1.00  0.00     0.143 C 
ENDBRANCH  17  18
ENDBRANCH  16  17
BRANCH  16  24
HETATM   24  O   UNL     1      -4.397  -4.759   1.427  1.00  0.00    -0.392 OA
HETATM   25  H   UNL     1      -5.141  -5.120   0.911  1.00  0.00     0.210 HD
ENDBRANCH  16  24
ENDBRANCH  15  16
ENDBRANCH  13  15
ENDBRANCH   6  13
BRANCH   1  26
HETATM   26  C   UNL     1       2.001   2.403  -0.199  1.00  0.00     0.094 C 
HETATM   27  C   UNL     1       2.423   2.993   1.192  1.00  0.00     0.039 C 
HETATM   28  C   UNL     1       2.354   4.423   0.546  1.00  0.00     0.006 C 
HETATM   29  C   UNL     1       1.324   3.756  -0.469  1.00  0.00     0.039 C 
BRANCH  28  30
HETATM   30  C   UNL     1       1.811   5.557   1.429  1.00  0.00     0.175 C 
BRANCH  30  31
HETATM   31  O   UNL     1       0.650   5.145   2.140  1.00  0.00    -0.400 OA
HETATM   32  H   UNL     1      -0.105   5.246   1.538  1.00  0.00     0.209 HD
ENDBRANCH  30  31
ENDBRANCH  28  30
BRANCH  28  33
HETATM   33  C   UNL     1       3.737   4.873   0.013  1.00  0.00     0.175 C 
BRANCH  33  34
HETATM   34  O   UNL     1       3.579   5.940  -0.913  1.00  0.00    -0.400 OA
HETATM   35  H   UNL     1       3.376   5.554  -1.781  1.00  0.00     0.209 HD
ENDBRANCH  33  34
ENDBRANCH  28  33
ENDBRANCH   1  26
TORSDOF 11
