REMARK  7 active torsions:
REMARK  status: ('A' for Active; 'I' for Inactive)
REMARK    1  A    between atoms: C_2  and  O_3 
REMARK    2  A    between atoms: C_2  and  C_8 
REMARK    3  A    between atoms: O_3  and  C_4 
REMARK    4  A    between atoms: C_4  and  C_5 
REMARK    5  A    between atoms: C_5  and  C_6 
REMARK       I    between atoms: C_8  and  N_10 
REMARK    6  A    between atoms: N_10  and  C_11 
REMARK    7  A    between atoms: C_17  and  N_18 
ROOT
HETATM    1  C   UNL     1       4.897  -1.977   2.407  1.00  0.00     0.077 A 
HETATM    2  C   UNL     1       5.632  -1.644   3.554  1.00  0.00     0.119 A 
HETATM    3  N   UNL     1       6.104  -2.532   4.455  1.00  0.00    -0.373 N 
ATOM      4  HN  UNL     1       6.658  -2.246   5.262  1.00  0.00     0.164 HD
HETATM    5  C   UNL     1       5.795  -3.813   4.217  1.00  0.00     0.090 A 
HETATM    6  C   UNL     1       5.099  -4.255   3.094  1.00  0.00     0.048 A 
HETATM    7  C   UNL     1       4.660  -3.336   2.115  1.00  0.00     0.060 A 
ENDROOT
BRANCH   1   8
HETATM    8  N   UNL     1       4.434  -0.949   1.549  1.00  0.00    -0.322 N 
HETATM    9  C   UNL     1       3.841   0.199   2.053  1.00  0.00     0.251 C 
HETATM   10  O   UNL     1       3.837   0.494   3.251  1.00  0.00    -0.270 OA
HETATM   11  H   UNL     1       4.210  -1.255   0.614  1.00  0.00     0.169 HD
BRANCH   9  12
HETATM   12  C   UNL     1       3.054   1.087   1.052  1.00  0.00     0.209 C 
HETATM   13  C   UNL     1       3.434   0.859  -0.406  1.00  0.00     0.050 C 
BRANCH  12  14
HETATM   14  O   UNL     1       1.629   0.966   1.141  1.00  0.00    -0.377 OA
BRANCH  14  15
HETATM   15  C   UNL     1       1.112   1.431   2.396  1.00  0.00     0.172 C 
BRANCH  15  16
HETATM   16  C   UNL     1      -0.424   1.459   2.364  1.00  0.00     0.052 C 
BRANCH  16  17
HETATM   17  C   UNL     1      -1.004   1.804   3.710  1.00  0.00    -0.035 C 
HETATM   18  C   UNL     1      -1.777   2.873   3.952  1.00  0.00     0.007 C 
ENDBRANCH  16  17
ENDBRANCH  15  16
ENDBRANCH  14  15
ENDBRANCH  12  14
ENDBRANCH   9  12
ENDBRANCH   1   8
BRANCH   7  19
HETATM   19  N   UNL     1       4.070  -3.795   0.931  1.00  0.00    -0.379 N 
HETATM   20  C   UNL     1       4.322  -5.175   0.477  1.00  0.00     0.123 C 
HETATM   21  C   UNL     1       4.509  -5.161  -1.039  1.00  0.00     0.020 C 
HETATM   22  C   UNL     1       3.320  -4.516  -1.745  1.00  0.00     0.003 C 
HETATM   23  C   UNL     1       2.989  -3.149  -1.139  1.00  0.00     0.020 C 
HETATM   24  C   UNL     1       2.819  -3.247   0.384  1.00  0.00     0.123 C 
ENDBRANCH   7  19
TORSDOF 7
