REMARK  3 active torsions:
REMARK  status: ('A' for Active; 'I' for Inactive)
REMARK    1  A    between atoms: C_2  and  C_3 
REMARK       I    between atoms: C_2  and  N_12 
REMARK    2  A    between atoms: C_3  and  N_4 
REMARK    3  A    between atoms: N_12  and  C_13 
ROOT
HETATM    1  O   UNL     1       2.579  -1.171  -0.305  1.00  0.00    -0.272 OA
HETATM    2  C   UNL     1       2.189  -0.024  -0.102  1.00  0.00     0.236 C 
HETATM    3  N   UNL     1       3.018   1.092  -0.101  1.00  0.00    -0.355 N 
HETATM    4  H   UNL     1       2.553   1.928  -0.442  1.00  0.00     0.162 HD
ENDROOT
BRANCH   2   5
HETATM    5  C   UNL     1       0.726   0.312   0.240  1.00  0.00     0.235 C 
BRANCH   5   6
HETATM    6  N   UNL     1      -0.255  -0.188  -0.720  1.00  0.00    -0.301 N 
HETATM    7  C   UNL     1      -1.160  -1.162  -0.349  1.00  0.00     0.102 A 
HETATM    8  C   UNL     1      -2.163  -1.534  -1.149  1.00  0.00     0.092 A 
HETATM    9  C   UNL     1      -2.291  -0.899  -2.471  1.00  0.00     0.250 A 
HETATM   10  O   UNL     1      -3.214  -1.189  -3.224  1.00  0.00    -0.268 OA
HETATM   11  N   UNL     1      -1.338   0.024  -2.784  1.00  0.00    -0.275 N 
HETATM   12  C   UNL     1      -0.344   0.465  -1.945  1.00  0.00     0.329 A 
HETATM   13  H   UNL     1      -1.432   0.502  -3.665  1.00  0.00     0.173 HD
HETATM   14  O   UNL     1       0.392   1.397  -2.266  1.00  0.00    -0.246 OA
ENDBRANCH   5   6
ENDBRANCH   2   5
BRANCH   3  15
HETATM   15  C   UNL     1       4.467   1.027  -0.373  1.00  0.00     0.084 C 
HETATM   16  C   UNL     1       5.206   0.261   0.741  1.00  0.00     0.025 C 
HETATM   17  C   UNL     1       6.677  -0.101   0.495  1.00  0.00     0.002 C 
HETATM   18  C   UNL     1       7.022  -0.533  -0.931  1.00  0.00     0.000 C 
HETATM   19  C   UNL     1       7.697   0.547  -1.781  1.00  0.00     0.000 C 
HETATM   20  C   UNL     1       6.864   1.776  -2.154  1.00  0.00     0.000 C 
HETATM   21  C   UNL     1       6.444   2.654  -0.977  1.00  0.00     0.002 C 
HETATM   22  C   UNL     1       4.992   2.468  -0.529  1.00  0.00     0.025 C 
ENDBRANCH   3  15
TORSDOF 3
