REMARK  6 active torsions:
REMARK  status: ('A' for Active; 'I' for Inactive)
REMARK    1  A    between atoms: C_2  and  C_3 
REMARK       I    between atoms: C_2  and  N_13 
REMARK    2  A    between atoms: C_3  and  N_4 
REMARK    3  A    between atoms: N_4  and  C_5 
REMARK    4  A    between atoms: C_5  and  C_6 
REMARK    5  A    between atoms: C_6  and  N_7 
REMARK    6  A    between atoms: N_13  and  C_14 
ROOT
HETATM    1  C   UNL     1       4.407   1.098  -0.534  1.00  0.00     0.122 C 
HETATM    2  C   UNL     1       4.993  -0.143  -1.258  1.00  0.00     0.046 C 
HETATM    3  C   UNL     1       6.447  -0.034  -1.726  1.00  0.00     0.004 C 
HETATM    4  C   UNL     1       7.523  -0.290  -0.676  1.00  0.00     0.000 C 
HETATM    5  C   UNL     1       7.207   0.046   0.776  1.00  0.00     0.000 C 
HETATM    6  C   UNL     1       6.499   1.377   1.002  1.00  0.00     0.004 C 
HETATM    7  C   UNL     1       4.971   1.278   0.893  1.00  0.00     0.046 C 
HETATM    8  C   UNL     1       4.703   2.334  -1.327  1.00  0.00     0.091 C 
HETATM    9  N   UNL     1       4.880   3.301  -1.943  1.00  0.00    -0.195 NA
ENDROOT
BRANCH   1  10
HETATM   10  N   UNL     1       2.925   1.004  -0.485  1.00  0.00    -0.338 N 
HETATM   11  C   UNL     1       2.206  -0.040   0.049  1.00  0.00     0.247 C 
HETATM   12  O   UNL     1       2.717  -1.039   0.546  1.00  0.00    -0.272 OA
HETATM   13  H   UNL     1       2.412   1.831  -0.770  1.00  0.00     0.164 HD
BRANCH  11  14
HETATM   14  C   UNL     1       0.682   0.142  -0.051  1.00  0.00     0.371 C 
BRANCH  14  15
HETATM   15  N   UNL     1      -0.016  -0.315   1.165  1.00  0.00     0.093 N 
HETATM   16  H   UNL     1       0.244  -1.297   1.304  1.00  0.00     0.316 HD
BRANCH  15  17
HETATM   17  C   UNL     1       0.380   0.421   2.381  1.00  0.00     0.291 C 
BRANCH  17  18
HETATM   18  C   UNL     1       0.073   1.919   2.346  1.00  0.00     0.178 C 
BRANCH  18  19
HETATM   19  N   UNL     1       0.569   2.589   3.532  1.00  0.00    -0.302 N 
HETATM   20  C   UNL     1      -0.137   2.902   4.656  1.00  0.00     0.111 A 
HETATM   21  C   UNL     1       0.746   3.552   5.487  1.00  0.00     0.037 A 
HETATM   22  C   UNL     1       1.956   3.584   4.769  1.00  0.00     0.108 A 
HETATM   23  N   UNL     1       1.853   2.997   3.574  1.00  0.00    -0.310 N 
ATOM     24  HN  UNL     1       2.575   2.884   2.862  1.00  0.00     0.186 HD
ENDBRANCH  18  19
ENDBRANCH  17  18
ENDBRANCH  15  17
ENDBRANCH  14  15
ENDBRANCH  11  14
ENDBRANCH   1  10
TORSDOF 6
