REMARK  5 active torsions:
REMARK  status: ('A' for Active; 'I' for Inactive)
REMARK    1  A    between atoms: N_6  and  C_7 
REMARK    2  A    between atoms: C_7  and  C_8 
REMARK       I    between atoms: C_8  and  N_10 
REMARK    3  A    between atoms: N_10  and  C_11 
REMARK    4  A    between atoms: C_11  and  C_12 
REMARK    5  A    between atoms: C_12  and  C_13 
ROOT
HETATM    1  C   UNL     1       4.304  -3.511  -0.601  1.00  0.00     0.235 C 
HETATM    2  O   UNL     1       3.136  -3.300  -0.937  1.00  0.00    -0.272 OA
HETATM    3  N   UNL     1       4.782  -4.781  -0.327  1.00  0.00    -0.359 N 
HETATM    4  H   UNL     1       5.783  -4.915  -0.208  1.00  0.00     0.162 HD
ENDROOT
BRANCH   1   5
HETATM    5  C   UNL     1       5.330  -2.395  -0.529  1.00  0.00     0.234 C 
BRANCH   5   6
HETATM    6  N   UNL     1       5.968  -2.134  -1.815  1.00  0.00    -0.315 N 
HETATM    7  C   UNL     1       5.214  -1.637  -2.867  1.00  0.00     0.095 C 
HETATM    8  C   UNL     1       5.784  -1.317  -4.034  1.00  0.00     0.018 C 
HETATM    9  C   UNL     1       7.218  -1.371  -4.169  1.00  0.00     0.013 C 
HETATM   10  C   UNL     1       7.985  -1.864  -3.183  1.00  0.00     0.006 C 
HETATM   11  C   UNL     1       9.478  -1.825  -3.183  1.00  0.00     0.054 C 
HETATM   12  C   UNL     1       7.326  -2.415  -1.952  1.00  0.00     0.253 C 
HETATM   13  O   UNL     1       7.982  -3.029  -1.113  1.00  0.00    -0.267 OA
ENDBRANCH   5   6
ENDBRANCH   1   5
BRANCH   3  14
HETATM   14  C   UNL     1       3.893  -5.911  -0.456  1.00  0.00     0.127 C 
BRANCH  14  15
HETATM   15  C   UNL     1       4.581  -7.262  -0.265  1.00  0.00     0.053 C 
BRANCH  15  16
HETATM   16  C   UNL     1       3.610  -8.428  -0.345  1.00  0.00    -0.082 A 
HETATM   17  C   UNL     1       3.414  -9.238   0.704  1.00  0.00    -0.024 A 
HETATM   18  C   UNL     1       2.506 -10.419   0.715  1.00  0.00     0.027 A 
HETATM   19  C   UNL     1       1.703 -10.694  -0.552  1.00  0.00     0.004 A 
HETATM   20  C   UNL     1       1.907  -9.783  -1.758  1.00  0.00     0.005 A 
HETATM   21  C   UNL     1       2.913  -8.637  -1.658  1.00  0.00     0.034 A 
ENDBRANCH  15  16
ENDBRANCH  14  15
ENDBRANCH   3  14
TORSDOF 5
