REMARK  5 active torsions:
REMARK  status: ('A' for Active; 'I' for Inactive)
REMARK    1  A    between atoms: S_2  and  N_4 
REMARK    2  A    between atoms: S_2  and  N_14 
REMARK    3  A    between atoms: N_4  and  C_5 
REMARK    4  A    between atoms: C_5  and  C_6 
REMARK    5  A    between atoms: C_6  and  C_7 
ROOT
HETATM    1  N   UNL     1       2.348  -0.507  -1.628  1.00  0.00    -0.202 NA
HETATM    2  H   UNL     1       3.070  -1.224  -1.568  1.00  0.00     0.141 HD
ENDROOT
BRANCH   1   3
HETATM    3  S   UNL     1       2.077   0.051  -0.066  1.00  0.00     0.298 S 
HETATM    4  O   UNL     1       0.770   0.658  -0.014  1.00  0.00    -0.188 OA
HETATM    5  O   UNL     1       2.455  -1.032   0.810  1.00  0.00    -0.188 OA
BRANCH   3   6
HETATM    6  N   UNL     1       3.246   1.261  -0.014  1.00  0.00    -0.298 N 
HETATM    7  C   UNL     1       4.674   0.879  -0.003  1.00  0.00     0.136 C 
HETATM    8  C   UNL     1       5.128   0.445   1.387  1.00  0.00     0.021 C 
HETATM    9  C   UNL     1       4.706   1.405   2.500  1.00  0.00     0.003 C 
HETATM   10  C   UNL     1       3.290   1.962   2.347  1.00  0.00     0.021 C 
HETATM   11  C   UNL     1       2.983   2.379   0.917  1.00  0.00     0.136 C 
ENDBRANCH   3   6
ENDBRANCH   1   3
BRANCH   1  12
HETATM   12  C   UNL     1       1.135  -0.985  -2.330  1.00  0.00     0.110 C 
BRANCH  12  13
HETATM   13  C   UNL     1       1.519  -1.450  -3.735  1.00  0.00     0.055 C 
BRANCH  13  14
HETATM   14  C   UNL     1       0.316  -1.887  -4.519  1.00  0.00    -0.042 A 
HETATM   15  C   UNL     1      -0.124  -3.212  -4.508  1.00  0.00     0.010 A 
HETATM   16  C   UNL     1      -1.269  -3.563  -5.217  1.00  0.00     0.018 A 
HETATM   17  C   UNL     1      -1.940  -2.575  -5.912  1.00  0.00     0.087 A 
HETATM   18  N   UNL     1      -1.547  -1.283  -5.952  1.00  0.00    -0.375 N 
HETATM   19  C   UNL     1      -0.433  -0.969  -5.255  1.00  0.00     0.094 A 
ATOM     20  HN  UNL     1      -2.064  -0.581  -6.481  1.00  0.00     0.164 HD
ENDBRANCH  13  14
ENDBRANCH  12  13
ENDBRANCH   1  12
TORSDOF 5
