REMARK  3 active torsions:
REMARK  status: ('A' for Active; 'I' for Inactive)
REMARK       I    between atoms: C_2  and  N_4 
REMARK    1  A    between atoms: C_7  and  N_10 
REMARK       I    between atoms: N_10  and  C_11 
REMARK       I    between atoms: C_11  and  N_13 
REMARK    2  A    between atoms: N_13  and  C_14 
REMARK    3  A    between atoms: C_20  and  N_21 
ROOT
HETATM    1  N   UNL     1       4.894  -2.368  -3.716  1.00  0.00    -0.338 N 
HETATM    2  C   UNL     1       5.283  -2.045  -4.998  1.00  0.00     0.321 C 
HETATM    3  O   UNL     1       4.463  -1.839  -5.883  1.00  0.00    -0.247 OA
HETATM    4  N   UNL     1       6.646  -2.000  -5.130  1.00  0.00    -0.306 N 
HETATM    5  H   UNL     1       5.574  -2.242  -2.979  1.00  0.00     0.164 HD
HETATM    6  H   UNL     1       7.197  -2.610  -4.537  1.00  0.00     0.171 HD
ENDROOT
BRANCH   4   7
HETATM    7  C   UNL     1       7.336  -1.560  -6.285  1.00  0.00     0.075 A 
HETATM    8  C   UNL     1       6.720  -0.790  -7.274  1.00  0.00     0.034 A 
HETATM    9  C   UNL     1       7.423  -0.451  -8.421  1.00  0.00     0.019 A 
HETATM   10  C   UNL     1       8.733  -0.879  -8.524  1.00  0.00     0.089 A 
HETATM   11  N   UNL     1       9.377  -1.586  -7.569  1.00  0.00    -0.355 N 
HETATM   12  C   UNL     1       8.694  -1.921  -6.449  1.00  0.00     0.109 A 
ATOM     13  HN  UNL     1      10.352  -1.860  -7.689  1.00  0.00     0.166 HD
BRANCH  12  14
HETATM   14  N   UNL     1       9.346  -2.636  -5.410  1.00  0.00    -0.267 NA
HETATM   15  C   UNL     1      10.505  -3.429  -5.861  1.00  0.00     0.097 C 
HETATM   16  C   UNL     1      11.524  -3.313  -4.734  1.00  0.00     0.016 C 
HETATM   17  C   UNL     1      11.283  -1.918  -4.194  1.00  0.00     0.016 C 
HETATM   18  C   UNL     1       9.774  -1.734  -4.322  1.00  0.00     0.097 C 
ENDBRANCH  12  14
ENDBRANCH   4   7
BRANCH   1  19
HETATM   19  C   UNL     1       3.472  -2.452  -3.399  1.00  0.00     0.089 C 
HETATM   20  C   UNL     1       3.189  -2.233  -1.911  1.00  0.00     0.045 C 
HETATM   21  C   UNL     1       3.592  -3.428  -1.055  1.00  0.00     0.127 C 
HETATM   22  N   UNL     1       3.071  -4.680  -1.595  1.00  0.00    -0.352 N 
HETATM   23  C   UNL     1       2.590  -5.640  -0.716  1.00  0.00     0.215 C 
HETATM   24  C   UNL     1       3.376  -4.936  -3.002  1.00  0.00     0.127 C 
HETATM   25  C   UNL     1       2.135  -6.947  -1.316  1.00  0.00     0.117 C 
HETATM   26  O   UNL     1       2.516  -5.457   0.499  1.00  0.00    -0.274 OA
HETATM   27  C   UNL     1       2.895  -3.789  -3.877  1.00  0.00     0.045 C 
ENDBRANCH   1  19
TORSDOF 3
