REMARK  3 active torsions:
REMARK  status: ('A' for Active; 'I' for Inactive)
REMARK    1  A    between atoms: O_1  and  C_2 
REMARK    2  A    between atoms: C_2  and  C_3 
REMARK    3  A    between atoms: N_5  and  C_9 
ROOT
HETATM    1  C   UNL     1       2.983   1.042   0.840  1.00  0.00     0.163 C 
HETATM    2  C   UNL     1       2.619   2.412   0.228  1.00  0.00     0.158 C 
HETATM    3  N   UNL     1       3.292   2.547  -1.069  1.00  0.00    -0.360 N 
HETATM    4  C   UNL     1       4.748   2.434  -0.986  1.00  0.00     0.151 C 
HETATM    5  C   UNL     1       5.077   1.068  -0.353  1.00  0.00     0.188 C 
HETATM    6  O   UNL     1       4.418   0.866   0.911  1.00  0.00    -0.381 OA
ENDROOT
BRANCH   3   7
HETATM    7  C   UNL     1       2.677   3.039  -2.196  1.00  0.00     0.142 A 
HETATM    8  N   UNL     1       3.432   3.737  -3.077  1.00  0.00    -0.348 N 
HETATM    9  C   UNL     1       2.848   4.193  -4.215  1.00  0.00     0.113 A 
ATOM     10  HN  UNL     1       4.418   3.916  -2.890  1.00  0.00     0.167 HD
HETATM   11  C   UNL     1       1.524   3.967  -4.548  1.00  0.00     0.052 A 
HETATM   12 CL   UNL     1       0.863   4.549  -6.021  1.00  0.00    -0.083 Cl
HETATM   13  C   UNL     1       0.746   3.240  -3.669  1.00  0.00     0.071 A 
HETATM   14  C   UNL     1       1.327   2.779  -2.493  1.00  0.00     0.161 A 
HETATM   15  F   UNL     1       0.566   2.015  -1.694  1.00  0.00    -0.202 F 
ENDBRANCH   3   7
BRANCH   1  16
HETATM   16  C   UNL     1       2.294  -0.117   0.104  1.00  0.00     0.197 C 
BRANCH  16  17
HETATM   17  O   UNL     1       0.880  -0.049   0.265  1.00  0.00    -0.398 OA
HETATM   18  H   UNL     1       0.488  -0.578  -0.452  1.00  0.00     0.209 HD
ENDBRANCH  16  17
ENDBRANCH   1  16
TORSDOF 3
