REMARK  5 active torsions:
REMARK  status: ('A' for Active; 'I' for Inactive)
REMARK    1  A    between atoms: O_1  and  C_2 
REMARK    2  A    between atoms: C_2  and  C_3 
REMARK    3  A    between atoms: C_3  and  N_4 
REMARK    4  A    between atoms: C_5  and  C_6 
REMARK    5  A    between atoms: C_6  and  N_7 
ROOT
HETATM    1  N   UNL     1       4.275   1.225  -0.792  1.00  0.00    -0.331 N 
HETATM    2  C   UNL     1       5.039   1.265   0.359  1.00  0.00     0.103 A 
HETATM    3  N   UNL     1       6.326   1.278   0.057  1.00  0.00    -0.343 N 
ATOM      4  HN  UNL     1       7.108   1.303   0.712  1.00  0.00     0.167 HD
HETATM    5  C   UNL     1       6.400   1.252  -1.310  1.00  0.00     0.062 A 
HETATM    6  C   UNL     1       7.532   1.229  -2.136  1.00  0.00     0.055 A 
HETATM    7  C   UNL     1       7.340   1.201  -3.519  1.00  0.00     0.036 A 
HETATM    8 CL   UNL     1       8.712   1.171  -4.561  1.00  0.00    -0.084 Cl
HETATM    9  C   UNL     1       6.059   1.195  -4.074  1.00  0.00     0.026 A 
HETATM   10  C   UNL     1       4.921   1.208  -3.260  1.00  0.00     0.034 A 
HETATM   11  C   UNL     1       5.130   1.234  -1.875  1.00  0.00     0.062 A 
ENDROOT
BRANCH   2  12
HETATM   12  C   UNL     1       4.496   1.188   1.755  1.00  0.00     0.208 C 
BRANCH  12  13
HETATM   13  N   UNL     1       4.289   2.499   2.371  1.00  0.00    -0.318 N 
HETATM   14  C   UNL     1       5.371   3.350   2.566  1.00  0.00     0.094 A 
HETATM   15  C   UNL     1       5.256   4.468   3.295  1.00  0.00     0.017 A 
HETATM   16  C   UNL     1       4.002   4.792   3.924  1.00  0.00     0.007 A 
HETATM   17  C   UNL     1       2.934   4.006   3.747  1.00  0.00     0.074 A 
HETATM   18  C   UNL     1       3.038   2.770   2.922  1.00  0.00     0.247 A 
HETATM   19  O   UNL     1       2.047   2.056   2.786  1.00  0.00    -0.268 OA
ENDBRANCH  12  13
ENDBRANCH   2  12
BRANCH   1  20
HETATM   20  C   UNL     1       2.834   1.115  -0.886  1.00  0.00     0.156 C 
BRANCH  20  21
HETATM   21  C   UNL     1       2.373  -0.333  -1.020  1.00  0.00     0.184 C 
BRANCH  21  22
HETATM   22  O   UNL     1       0.959  -0.372  -1.166  1.00  0.00    -0.399 OA
HETATM   23  H   UNL     1       0.675  -1.290  -1.011  1.00  0.00     0.209 HD
ENDBRANCH  21  22
ENDBRANCH  20  21
ENDBRANCH   1  20
TORSDOF 5
