REMARK  6 active torsions:
REMARK  status: ('A' for Active; 'I' for Inactive)
REMARK    1  A    between atoms: N_1  and  C_10 
REMARK    2  A    between atoms: N_2  and  C_9 
REMARK    3  A    between atoms: S_4  and  C_12 
REMARK    4  A    between atoms: S_4  and  N_8 
REMARK    5  A    between atoms: C_10  and  C_11 
REMARK       I    between atoms: C_11  and  N_17 
REMARK    6  A    between atoms: N_17  and  C_26 
ROOT
HETATM    1  C   UNL     1      -2.911   2.029   0.035  1.00  0.00     0.240 C 
HETATM    2  N   UNL     1      -3.410   0.862  -0.532  1.00  0.00    -0.326 N 
HETATM    3  O   UNL     1      -1.730   2.237   0.305  1.00  0.00    -0.271 OA
HETATM    4  H   UNL     1      -4.417   0.740  -0.474  1.00  0.00     0.169 HD
ENDROOT
BRANCH   1   5
HETATM    5  C   UNL     1      -4.007   3.045   0.409  1.00  0.00     0.240 C 
BRANCH   5   6
HETATM    6  N   UNL     1      -4.230   3.007   1.847  1.00  0.00    -0.255 N 
HETATM    7  C   UNL     1      -4.813   1.852   2.346  1.00  0.00     0.334 C 
HETATM    8  N   UNL     1      -4.777   1.702   3.729  1.00  0.00    -0.279 N 
HETATM    9  O   UNL     1      -5.285   0.993   1.596  1.00  0.00    -0.246 OA
HETATM   10  C   UNL     1      -4.468   2.755   4.563  1.00  0.00     0.146 C 
HETATM   11  C   UNL     1      -4.120   3.944   4.072  1.00  0.00     0.200 C 
HETATM   12  C   UNL     1      -3.962   4.131   2.613  1.00  0.00     0.292 C 
HETATM   13  F   UNL     1      -3.865   5.001   4.865  1.00  0.00    -0.199 F 
HETATM   14  O   UNL     1      -3.650   5.225   2.150  1.00  0.00    -0.264 OA
BRANCH   8  15
HETATM   15  C   UNL     1      -5.011   0.353   4.214  1.00  0.00     0.232 C 
HETATM   16  O   UNL     1      -4.997   0.256   5.645  1.00  0.00    -0.366 OA
HETATM   17  C   UNL     1      -4.632  -1.099   5.972  1.00  0.00     0.170 C 
HETATM   18  C   UNL     1      -4.096  -1.757   4.713  1.00  0.00     0.031 C 
HETATM   19  C   UNL     1      -3.908  -0.601   3.772  1.00  0.00     0.056 C 
ENDBRANCH   8  15
ENDBRANCH   5   6
ENDBRANCH   1   5
BRANCH   2  20
HETATM   20  C   UNL     1      -2.694  -0.194  -1.139  1.00  0.00     0.034 A 
HETATM   21  C   UNL     1      -1.300  -0.252  -1.223  1.00  0.00     0.031 A 
HETATM   22  C   UNL     1      -0.670  -1.261  -1.968  1.00  0.00     0.027 A 
HETATM   23  C   UNL     1      -1.441  -2.214  -2.636  1.00  0.00     0.074 A 
HETATM   24  C   UNL     1      -2.831  -2.205  -2.515  1.00  0.00     0.027 A 
HETATM   25  C   UNL     1      -3.450  -1.205  -1.755  1.00  0.00     0.031 A 
BRANCH  23  26
HETATM   26  S   UNL     1      -0.681  -3.330  -3.793  1.00  0.00     0.243 S 
HETATM   27  O   UNL     1      -1.318  -3.090  -5.070  1.00  0.00    -0.206 OA
HETATM   28  O   UNL     1       0.756  -3.225  -3.643  1.00  0.00    -0.206 OA
BRANCH  26  29
HETATM   29  N   UNL     1      -1.159  -4.877  -3.251  1.00  0.00    -0.202 NA
HETATM   30  C   UNL     1      -0.487  -5.393  -2.015  1.00  0.00     0.134 C 
HETATM   31  C   UNL     1       0.895  -6.001  -2.318  1.00  0.00     0.183 C 
HETATM   32  O   UNL     1       0.848  -6.974  -3.373  1.00  0.00    -0.389 OA
HETATM   33  C   UNL     1       0.296  -6.408  -4.572  1.00  0.00     0.183 C 
HETATM   34  C   UNL     1      -1.136  -5.940  -4.310  1.00  0.00     0.134 C 
ENDBRANCH  26  29
ENDBRANCH  23  26
ENDBRANCH   2  20
TORSDOF 6
