REMARK  4 active torsions:
REMARK  status: ('A' for Active; 'I' for Inactive)
REMARK    1  A    between atoms: C_2  and  C_3 
REMARK    2  A    between atoms: C_3  and  N_4 
REMARK    3  A    between atoms: C_3  and  C_17 
REMARK       I    between atoms: N_4  and  C_5 
REMARK       I    between atoms: C_5  and  N_7 
REMARK    4  A    between atoms: N_7  and  C_8 
ROOT
HETATM    1  N   UNL     1       2.353  -2.365   0.348  1.00  0.00    -0.336 N 
HETATM    2  C   UNL     1       1.038  -2.698   0.570  1.00  0.00     0.321 C 
HETATM    3  O   UNL     1       0.266  -2.003   1.216  1.00  0.00    -0.247 OA
HETATM    4  N   UNL     1       0.720  -3.919   0.018  1.00  0.00    -0.304 N 
HETATM    5  H   UNL     1       2.809  -2.783  -0.453  1.00  0.00     0.164 HD
HETATM    6  H   UNL     1       1.435  -4.615   0.214  1.00  0.00     0.171 HD
ENDROOT
BRANCH   1   7
HETATM    7  C   UNL     1       2.933  -1.111   0.849  1.00  0.00     0.114 C 
BRANCH   7   8
HETATM    8  C   UNL     1       2.723   0.054  -0.146  1.00  0.00     0.023 C 
HETATM    9  C   UNL     1       1.269   0.405  -0.419  1.00  0.00     0.007 C 
ENDBRANCH   7   8
BRANCH   7  10
HETATM   10  C   UNL     1       4.433  -1.339   1.158  1.00  0.00     0.144 C 
HETATM   11  C   UNL     1       5.127  -0.203   1.903  1.00  0.00     0.036 C 
HETATM   12  C   UNL     1       6.507  -0.116   1.287  1.00  0.00     0.029 C 
HETATM   13  C   UNL     1       6.547  -1.223   0.255  1.00  0.00     0.168 C 
HETATM   14  O   UNL     1       5.186  -1.530  -0.056  1.00  0.00    -0.384 OA
ENDBRANCH   7  10
ENDBRANCH   1   7
BRANCH   4  15
HETATM   15  C   UNL     1      -0.564  -4.451   0.048  1.00  0.00     0.111 A 
HETATM   16  C   UNL     1      -1.691  -3.839  -0.377  1.00  0.00    -0.028 A 
HETATM   17  C   UNL     1      -1.778  -2.479  -1.010  1.00  0.00     0.050 C 
HETATM   18  C   UNL     1      -2.965  -4.536  -0.290  1.00  0.00     0.026 A 
HETATM   19  C   UNL     1      -3.041  -5.785   0.181  1.00  0.00     0.094 A 
HETATM   20  N   UNL     1      -1.914  -6.456   0.603  1.00  0.00    -0.327 N 
HETATM   21  C   UNL     1      -2.038  -7.790   1.162  1.00  0.00     0.159 C 
HETATM   22  C   UNL     1      -0.651  -5.867   0.582  1.00  0.00     0.274 A 
HETATM   23  O   UNL     1       0.376  -6.422   0.978  1.00  0.00    -0.265 OA
ENDBRANCH   4  15
TORSDOF 4
