REMARK  5 active torsions:
REMARK  status: ('A' for Active; 'I' for Inactive)
REMARK    1  A    between atoms: C_2  and  C_3 
REMARK    2  A    between atoms: C_2  and  N_16 
REMARK    3  A    between atoms: C_3  and  N_4 
REMARK       I    between atoms: N_4  and  C_5 
REMARK    4  A    between atoms: C_5  and  C_7 
REMARK    5  A    between atoms: C_7  and  C_8 
ROOT
HETATM    1  N   UNL     1       2.697  -2.582   0.134  1.00  0.00    -0.359 N 
HETATM    2  C   UNL     1       3.523  -3.038   1.140  1.00  0.00     0.222 C 
HETATM    3  O   UNL     1       4.573  -2.480   1.449  1.00  0.00    -0.273 OA
HETATM    4  H   UNL     1       1.867  -3.107  -0.114  1.00  0.00     0.162 HD
ENDROOT
BRANCH   2   5
HETATM    5  C   UNL     1       3.025  -4.279   1.855  1.00  0.00     0.146 C 
BRANCH   5   6
HETATM    6  C   UNL     1       3.524  -5.584   1.330  1.00  0.00     0.006 A 
HETATM    7  C   UNL     1       3.220  -6.866   1.888  1.00  0.00     0.038 A 
HETATM    8  C   UNL     1       2.385  -7.198   3.066  1.00  0.00     0.071 C 
HETATM    9  N   UNL     1       3.790  -7.854   1.194  1.00  0.00    -0.265 N 
HETATM   10  O   UNL     1       4.503  -7.243   0.187  1.00  0.00    -0.242 OA
ATOM     11  HN  UNL     1       3.713  -8.855   1.373  1.00  0.00     0.194 HD
HETATM   12  C   UNL     1       4.350  -5.892   0.266  1.00  0.00     0.081 A 
HETATM   13  C   UNL     1       5.087  -5.125  -0.758  1.00  0.00     0.079 C 
ENDBRANCH   5   6
ENDBRANCH   2   5
BRANCH   1  14
HETATM   14  C   UNL     1       3.007  -1.382  -0.631  1.00  0.00     0.158 C 
BRANCH  14  15
HETATM   15  C   UNL     1       2.467  -0.068   0.010  1.00  0.00     0.236 C 
HETATM   16  C   UNL     1       0.928  -0.118   0.031  1.00  0.00     0.044 C 
BRANCH  15  17
HETATM   17  N   UNL     1       2.948   1.126  -0.727  1.00  0.00     0.094 N 
HETATM   18  C   UNL     1       4.417   1.249  -0.711  1.00  0.00     0.273 C 
HETATM   19  C   UNL     1       4.725   2.740  -0.773  1.00  0.00     0.032 C 
HETATM   20  C   UNL     1       3.372   3.417  -0.845  1.00  0.00     0.032 C 
HETATM   21  C   UNL     1       2.436   2.403  -0.215  1.00  0.00     0.273 C 
ENDBRANCH  15  17
ENDBRANCH  14  15
ENDBRANCH   1  14
TORSDOF 5
