REMARK  5 active torsions:
REMARK  status: ('A' for Active; 'I' for Inactive)
REMARK    1  A    between atoms: N_6  and  C_7 
REMARK    2  A    between atoms: C_7  and  C_8 
REMARK    3  A    between atoms: C_8  and  O_9 
REMARK    4  A    between atoms: C_8  and  C_10 
REMARK    5  A    between atoms: C_19  and  C_20 
REMARK       I    between atoms: C_20  and  N_22 
ROOT
HETATM    1  C   UNL     1       0.831   0.009   0.052  1.00  0.00     0.049 C 
HETATM    2  C   UNL     1       2.335   0.150   0.042  1.00  0.00    -0.039 A 
HETATM    3  C   UNL     1       3.060  -1.102   0.069  1.00  0.00     0.033 A 
HETATM    4  C   UNL     1       4.400  -1.162   0.104  1.00  0.00     0.011 A 
HETATM    5  C   UNL     1       5.077  -2.506   0.153  1.00  0.00     0.068 C 
HETATM    6  N   UNL     1       5.141   0.019   0.097  1.00  0.00    -0.315 N 
HETATM    7  C   UNL     1       4.516   1.272   0.008  1.00  0.00     0.264 A 
HETATM    8  O   UNL     1       5.182   2.310  -0.083  1.00  0.00    -0.267 OA
HETATM    9  C   UNL     1       3.008   1.323   0.021  1.00  0.00     0.105 A 
ENDROOT
BRANCH   6  10
HETATM   10  C   UNL     1       6.623   0.018   0.159  1.00  0.00     0.169 C 
BRANCH  10  11
HETATM   11  C   UNL     1       7.313   0.102  -1.231  1.00  0.00     0.172 C 
BRANCH  11  12
HETATM   12  O   UNL     1       6.832   1.221  -1.991  1.00  0.00    -0.389 OA
HETATM   13  H   UNL     1       6.492   1.884  -1.357  1.00  0.00     0.210 HD
ENDBRANCH  11  12
BRANCH  11  14
HETATM   14  C   UNL     1       8.833   0.159  -1.179  1.00  0.00     0.011 A 
HETATM   15  C   UNL     1       9.567   1.203  -1.772  1.00  0.00     0.013 A 
HETATM   16  C   UNL     1      10.967   1.181  -1.801  1.00  0.00     0.001 A 
HETATM   17  C   UNL     1      11.662   0.118  -1.234  1.00  0.00     0.003 A 
HETATM   18  C   UNL     1      10.956  -0.915  -0.622  1.00  0.00     0.043 A 
HETATM   19  C   UNL     1       9.561  -0.888  -0.602  1.00  0.00     0.125 A 
HETATM   20  F   UNL     1       8.914  -1.913  -0.029  1.00  0.00    -0.205 F 
ENDBRANCH  11  14
ENDBRANCH  10  11
ENDBRANCH   6  10
BRANCH   9  21
HETATM   21  C   UNL     1       2.272   2.637   0.020  1.00  0.00     0.255 C 
HETATM   22  O   UNL     1       1.050   2.746   0.014  1.00  0.00    -0.268 OA
HETATM   23  N   UNL     1       3.030   3.766   0.040  1.00  0.00    -0.366 N 
HETATM   24  H   UNL     1       4.046   3.729   0.014  1.00  0.00     0.159 HD
HETATM   25  H   UNL     1       2.567   4.663   0.027  1.00  0.00     0.159 HD
ENDBRANCH   9  21
TORSDOF 5
