REMARK  6 active torsions:
REMARK  status: ('A' for Active; 'I' for Inactive)
REMARK    1  A    between atoms: C_2  and  C_3 
REMARK    2  A    between atoms: C_2  and  N_10 
REMARK    3  A    between atoms: C_3  and  N_4 
REMARK    4  A    between atoms: N_10  and  C_11 
REMARK    5  A    between atoms: C_11  and  C_12 
REMARK       I    between atoms: C_12  and  N_14 
REMARK    6  A    between atoms: N_14  and  C_15 
ROOT
HETATM    1  C   UNL     1       4.947   1.388   2.572  1.00  0.00     0.246 C 
HETATM    2  O   UNL     1       5.914   0.999   3.221  1.00  0.00    -0.272 OA
HETATM    3  N   UNL     1       4.214   2.499   2.911  1.00  0.00    -0.347 N 
HETATM    4  H   UNL     1       3.424   2.759   2.321  1.00  0.00     0.163 HD
ENDROOT
BRANCH   1   5
HETATM    5  C   UNL     1       4.498   0.698   1.282  1.00  0.00     0.372 C 
BRANCH   5   6
HETATM    6  N   UNL     1       3.035   0.829   1.112  1.00  0.00     0.098 N 
HETATM    7  H   UNL     1       2.594   0.418   1.940  1.00  0.00     0.317 HD
BRANCH   6   8
HETATM    8  C   UNL     1       2.539   0.100  -0.080  1.00  0.00     0.236 C 
HETATM    9  C   UNL     1       1.009   0.222  -0.061  1.00  0.00     0.044 C 
BRANCH   8  10
HETATM   10  C   UNL     1       3.126   0.640  -1.401  1.00  0.00     0.183 C 
BRANCH  10  11
HETATM   11  N   UNL     1       2.624  -0.033  -2.583  1.00  0.00    -0.302 N 
HETATM   12  C   UNL     1       1.991   0.547  -3.644  1.00  0.00     0.111 A 
HETATM   13  C   UNL     1       1.703  -0.476  -4.520  1.00  0.00     0.037 A 
HETATM   14  C   UNL     1       2.219  -1.631  -3.897  1.00  0.00     0.108 A 
HETATM   15  N   UNL     1       2.792  -1.363  -2.723  1.00  0.00    -0.310 N 
ATOM     16  HN  UNL     1       3.249  -2.011  -2.082  1.00  0.00     0.186 HD
ENDBRANCH  10  11
ENDBRANCH   8  10
ENDBRANCH   6   8
ENDBRANCH   5   6
ENDBRANCH   1   5
BRANCH   3  17
HETATM   17  C   UNL     1       4.486   3.250   4.123  1.00  0.00     0.170 C 
HETATM   18  C   UNL     1       3.797   2.588   5.327  1.00  0.00     0.034 C 
HETATM   19  C   UNL     1       4.430   3.014   6.650  1.00  0.00     0.004 C 
HETATM   20  C   UNL     1       3.974   4.365   7.210  1.00  0.00     0.015 C 
HETATM   21  C   UNL     1       3.521   5.431   6.209  1.00  0.00     0.095 C 
HETATM   22  N   UNL     1       4.374   5.521   5.042  1.00  0.00    -0.261 NA
HETATM   23  C   UNL     1       4.021   4.707   3.975  1.00  0.00     0.220 C 
HETATM   24  H   UNL     1       5.353   5.457   5.293  1.00  0.00     0.130 HD
HETATM   25  O   UNL     1       3.341   5.111   3.036  1.00  0.00    -0.278 OA
ENDBRANCH   3  17
TORSDOF 6
