REMARK  6 active torsions:
REMARK  status: ('A' for Active; 'I' for Inactive)
REMARK       I    between atoms: N_2  and  C_3 
REMARK    1  A    between atoms: C_3  and  C_5 
REMARK    2  A    between atoms: C_5  and  C_6 
REMARK    3  A    between atoms: C_5  and  N_10 
REMARK    4  A    between atoms: C_6  and  C_7 
REMARK       I    between atoms: N_10  and  C_11 
REMARK    5  A    between atoms: C_11  and  C_13 
REMARK    6  A    between atoms: C_13  and  C_14 
ROOT
HETATM    1  N   UNL     1       5.262  -0.083   2.764  1.00  0.00    -0.348 N 
HETATM    2  C   UNL     1       4.745   0.652   3.815  1.00  0.00     0.222 C 
HETATM    3  O   UNL     1       3.720   1.317   3.734  1.00  0.00    -0.273 OA
HETATM    4  H   UNL     1       6.212  -0.427   2.853  1.00  0.00     0.163 HD
ENDROOT
BRANCH   1   5
HETATM    5  C   UNL     1       4.716   0.020   1.402  1.00  0.00     0.177 C 
BRANCH   5   6
HETATM    6  C   UNL     1       3.185  -0.239   1.378  1.00  0.00     0.240 C 
HETATM    7  N   UNL     1       2.816  -1.376   2.079  1.00  0.00    -0.364 N 
HETATM    8  C   UNL     1       1.428  -1.660   2.344  1.00  0.00     0.149 C 
HETATM    9  H   UNL     1       3.514  -1.783   2.688  1.00  0.00     0.161 HD
HETATM   10  O   UNL     1       2.397   0.412   0.699  1.00  0.00    -0.271 OA
ENDBRANCH   5   6
BRANCH   5  11
HETATM   11  C   UNL     1       5.091   1.307   0.646  1.00  0.00     0.038 C 
BRANCH  11  12
HETATM   12  C   UNL     1       6.601   1.526   0.385  1.00  0.00    -0.020 C 
HETATM   13  C   UNL     1       7.264   0.424  -0.446  1.00  0.00     0.009 C 
HETATM   14  C   UNL     1       6.804   2.869  -0.339  1.00  0.00     0.009 C 
ENDBRANCH  11  12
ENDBRANCH   5  11
ENDBRANCH   1   5
BRANCH   2  15
HETATM   15  C   UNL     1       5.515   0.549   5.126  1.00  0.00     0.146 C 
BRANCH  15  16
HETATM   16  C   UNL     1       5.303  -0.745   5.838  1.00  0.00     0.006 A 
HETATM   17  C   UNL     1       6.279  -1.709   6.222  1.00  0.00     0.038 A 
HETATM   18  C   UNL     1       7.750  -1.700   6.023  1.00  0.00     0.071 C 
HETATM   19  N   UNL     1       5.727  -2.737   6.874  1.00  0.00    -0.265 N 
HETATM   20  O   UNL     1       4.382  -2.454   6.954  1.00  0.00    -0.242 OA
ATOM     21  HN  UNL     1       6.204  -3.562   7.238  1.00  0.00     0.194 HD
HETATM   22  C   UNL     1       4.129  -1.264   6.349  1.00  0.00     0.081 A 
HETATM   23  C   UNL     1       2.727  -0.811   6.393  1.00  0.00     0.079 C 
ENDBRANCH  15  16
ENDBRANCH   2  15
TORSDOF 6
