REMARK  4 active torsions:
REMARK  status: ('A' for Active; 'I' for Inactive)
REMARK    1  A    between atoms: O_2  and  C_3 
REMARK    2  A    between atoms: C_6  and  N_7 
REMARK       I    between atoms: N_7  and  C_8 
REMARK    3  A    between atoms: C_8  and  C_10 
REMARK    4  A    between atoms: C_10  and  N_11 
ROOT
HETATM    1  N   UNL     1       4.182   1.295  -3.801  1.00  0.00    -0.354 N 
HETATM    2  C   UNL     1       5.063   0.609  -4.623  1.00  0.00     0.237 C 
HETATM    3  O   UNL     1       6.043   0.002  -4.194  1.00  0.00    -0.272 OA
HETATM    4  H   UNL     1       3.559   1.954  -4.262  1.00  0.00     0.162 HD
ENDROOT
BRANCH   1   5
HETATM    5  C   UNL     1       4.365   1.340  -2.328  1.00  0.00     0.098 C 
HETATM    6  C   UNL     1       4.248  -0.046  -1.638  1.00  0.00     0.064 C 
HETATM    7  C   UNL     1       2.751   0.256  -1.320  1.00  0.00     0.067 C 
HETATM    8  C   UNL     1       1.834  -0.405  -2.356  1.00  0.00     0.047 C 
HETATM    9  C   UNL     1       3.123   1.796  -1.479  1.00  0.00     0.004 C 
HETATM   10  C   UNL     1       2.077   2.682  -2.151  1.00  0.00     0.020 C 
HETATM   11  C   UNL     1       3.591   2.472  -0.172  1.00  0.00     0.020 C 
BRANCH   7  12
HETATM   12  O   UNL     1       2.354  -0.158   0.017  1.00  0.00    -0.384 OA
HETATM   13  C   UNL     1       1.028   0.131   0.439  1.00  0.00     0.202 C 
ENDBRANCH   7  12
ENDBRANCH   1   5
BRANCH   2  14
HETATM   14  C   UNL     1       4.716   0.629  -6.088  1.00  0.00     0.250 C 
BRANCH  14  15
HETATM   15  N   UNL     1       5.400   1.708  -6.758  1.00  0.00    -0.295 N 
HETATM   16  C   UNL     1       6.624   1.656  -7.362  1.00  0.00     0.112 A 
HETATM   17  C   UNL     1       6.843   2.906  -7.888  1.00  0.00     0.037 A 
HETATM   18  C   UNL     1       5.688   3.639  -7.557  1.00  0.00     0.108 A 
HETATM   19  N   UNL     1       4.801   2.912  -6.871  1.00  0.00    -0.310 N 
ATOM     20  HN  UNL     1       3.888   3.199  -6.517  1.00  0.00     0.186 HD
ENDBRANCH  14  15
ENDBRANCH   2  14
TORSDOF 4
