REMARK  4 active torsions:
REMARK  status: ('A' for Active; 'I' for Inactive)
REMARK    1  A    between atoms: O_2  and  C_3 
REMARK    2  A    between atoms: C_9  and  N_10 
REMARK       I    between atoms: N_10  and  C_11 
REMARK       I    between atoms: C_11  and  N_13 
REMARK    3  A    between atoms: N_13  and  C_14 
REMARK    4  A    between atoms: C_14  and  C_16 
ROOT
HETATM    1  N   UNL     1       4.847  -0.203  -0.904  1.00  0.00    -0.305 N 
HETATM    2  C   UNL     1       4.164  -1.392  -0.892  1.00  0.00     0.321 C 
HETATM    3  O   UNL     1       2.949  -1.509  -0.768  1.00  0.00    -0.247 OA
HETATM    4  N   UNL     1       4.967  -2.499  -1.045  1.00  0.00    -0.336 N 
HETATM    5  H   UNL     1       5.733  -0.172  -1.395  1.00  0.00     0.171 HD
HETATM    6  H   UNL     1       5.955  -2.430  -0.855  1.00  0.00     0.164 HD
ENDROOT
BRANCH   1   7
HETATM    7  C   UNL     1       4.264   1.059  -0.598  1.00  0.00     0.087 A 
HETATM    8  C   UNL     1       4.874   2.260  -0.986  1.00  0.00     0.169 A 
HETATM    9  N   UNL     1       4.378   3.492  -0.700  1.00  0.00    -0.345 N 
HETATM   10  C   UNL     1       3.224   3.544  -0.006  1.00  0.00     0.090 A 
ATOM     11  HN  UNL     1       4.858   4.341  -0.998  1.00  0.00     0.167 HD
HETATM   12  C   UNL     1       2.540   2.425   0.421  1.00  0.00     0.019 A 
HETATM   13  C   UNL     1       3.074   1.173   0.126  1.00  0.00     0.035 A 
BRANCH   8  14
HETATM   14  O   UNL     1       6.045   2.180  -1.727  1.00  0.00    -0.339 OA
HETATM   15  C   UNL     1       6.560   3.471  -2.064  1.00  0.00     0.211 C 
ENDBRANCH   8  14
ENDBRANCH   1   7
BRANCH   4  16
HETATM   16  C   UNL     1       4.374  -3.846  -1.034  1.00  0.00     0.111 C 
HETATM   17  C   UNL     1       4.562  -4.500  -2.401  1.00  0.00     0.035 C 
BRANCH  16  18
HETATM   18  C   UNL     1       4.920  -4.736   0.097  1.00  0.00     0.143 C 
HETATM   19  C   UNL     1       4.701  -4.207   1.508  1.00  0.00     0.036 C 
HETATM   20  C   UNL     1       5.890  -4.732   2.291  1.00  0.00     0.029 C 
HETATM   21  C   UNL     1       6.751  -5.440   1.265  1.00  0.00     0.168 C 
HETATM   22  O   UNL     1       6.341  -4.928  -0.009  1.00  0.00    -0.384 OA
ENDBRANCH  16  18
ENDBRANCH   4  16
TORSDOF 4
