REMARK  7 active torsions:
REMARK  status: ('A' for Active; 'I' for Inactive)
REMARK    1  A    between atoms: O_1  and  C_2 
REMARK    2  A    between atoms: C_2  and  C_3 
REMARK    3  A    between atoms: N_12  and  C_13 
REMARK    4  A    between atoms: C_13  and  C_14 
REMARK    5  A    between atoms: C_14  and  O_15 
REMARK    6  A    between atoms: C_14  and  C_16 
REMARK    7  A    between atoms: C_19  and  C_22 
ROOT
HETATM    1  C   UNL     1       2.213  -2.915  -0.163  1.00  0.00     0.167 C 
ENDROOT
BRANCH   1   2
HETATM    2  N   UNL     1       2.626  -2.111  -1.306  1.00  0.00    -0.330 N 
HETATM    3  C   UNL     1       1.793  -1.565  -2.265  1.00  0.00     0.108 A 
HETATM    4  N   UNL     1       2.472  -0.776  -3.077  1.00  0.00    -0.342 N 
HETATM    5  C   UNL     1       3.774  -0.826  -2.655  1.00  0.00     0.060 A 
ATOM      6  HN  UNL     1       2.102  -0.238  -3.860  1.00  0.00     0.167 HD
HETATM    7  C   UNL     1       4.902  -0.173  -3.175  1.00  0.00     0.032 A 
HETATM    8  C   UNL     1       3.908  -1.662  -1.550  1.00  0.00     0.062 A 
HETATM    9  C   UNL     1       6.147  -0.389  -2.569  1.00  0.00     0.002 A 
HETATM   10  C   UNL     1       6.264  -1.236  -1.467  1.00  0.00     0.002 A 
HETATM   11  C   UNL     1       5.146  -1.889  -0.930  1.00  0.00     0.032 A 
BRANCH   3  12
HETATM   12  C   UNL     1       0.324  -1.794  -2.342  1.00  0.00     0.240 C 
BRANCH  12  13
HETATM   13  O   UNL     1       0.093  -3.192  -2.466  1.00  0.00    -0.393 OA
HETATM   14  H   UNL     1      -0.731  -3.290  -2.973  1.00  0.00     0.209 HD
ENDBRANCH  12  13
ENDBRANCH   3  12
ENDBRANCH   1   2
BRANCH   1  15
HETATM   15  C   UNL     1       2.216  -4.429  -0.433  1.00  0.00     0.169 C 
BRANCH  15  16
HETATM   16  O   UNL     1       3.556  -4.905  -0.590  1.00  0.00    -0.389 OA
HETATM   17  H   UNL     1       3.977  -4.915   0.284  1.00  0.00     0.210 HD
ENDBRANCH  15  16
BRANCH  15  18
HETATM   18  C   UNL     1       1.557  -5.271   0.652  1.00  0.00    -0.028 A 
HETATM   19  C   UNL     1       0.963  -6.489   0.282  1.00  0.00     0.011 A 
HETATM   20  C   UNL     1       0.357  -7.319   1.231  1.00  0.00     0.017 A 
HETATM   21  C   UNL     1       0.335  -6.956   2.583  1.00  0.00     0.047 A 
HETATM   22  C   UNL     1       0.944  -5.751   2.963  1.00  0.00     0.017 A 
HETATM   23  C   UNL     1       1.552  -4.921   2.011  1.00  0.00     0.011 A 
BRANCH  21  24
HETATM   24  C   UNL     1      -0.321  -7.838   3.617  1.00  0.00     0.417 C 
HETATM   25  F   UNL     1      -0.896  -8.958   3.096  1.00  0.00    -0.166 F 
HETATM   26  F   UNL     1       0.556  -8.276   4.563  1.00  0.00    -0.166 F 
HETATM   27  F   UNL     1      -1.311  -7.195   4.298  1.00  0.00    -0.166 F 
ENDBRANCH  21  24
ENDBRANCH  15  18
ENDBRANCH   1  15
TORSDOF 7
