REMARK  2 active torsions:
REMARK  status: ('A' for Active; 'I' for Inactive)
REMARK    1  A    between atoms: C_7  and  N_8 
REMARK       I    between atoms: N_8  and  C_9 
REMARK       I    between atoms: C_9  and  N_11 
REMARK    2  A    between atoms: N_11  and  C_12 
ROOT
HETATM    1  N   UNL     1       5.109  -2.896   0.550  1.00  0.00    -0.307 N 
HETATM    2  C   UNL     1       4.483  -4.094   0.296  1.00  0.00     0.321 C 
HETATM    3  O   UNL     1       3.286  -4.309   0.452  1.00  0.00    -0.247 OA
HETATM    4  N   UNL     1       5.340  -5.080  -0.143  1.00  0.00    -0.330 N 
HETATM    5  H   UNL     1       6.089  -2.938   0.802  1.00  0.00     0.170 HD
HETATM    6  H   UNL     1       6.116  -4.772  -0.721  1.00  0.00     0.165 HD
ENDROOT
BRANCH   1   7
HETATM    7  C   UNL     1       4.421  -1.679   0.853  1.00  0.00     0.061 A 
HETATM    8  C   UNL     1       3.084  -1.499   0.480  1.00  0.00     0.048 A 
HETATM    9  C   UNL     1       2.445  -0.316   0.799  1.00  0.00     0.090 A 
HETATM   10  N   UNL     1       3.048   0.709   1.427  1.00  0.00    -0.368 N 
HETATM   11  C   UNL     1       4.355   0.557   1.765  1.00  0.00     0.029 A 
ATOM     12  HN  UNL     1       2.543   1.569   1.642  1.00  0.00     0.165 HD
HETATM   13  C   UNL     1       4.975   1.762   2.413  1.00  0.00     0.070 C 
HETATM   14  C   UNL     1       5.072  -0.621   1.498  1.00  0.00     0.083 A 
HETATM   15 CL   UNL     1       6.724  -0.787   1.999  1.00  0.00    -0.080 Cl
ENDBRANCH   1   7
BRANCH   4  16
HETATM   16  C   UNL     1       4.727  -6.356  -0.550  1.00  0.00     0.172 C 
HETATM   17  C   UNL     1       4.509  -7.261   0.665  1.00  0.00     0.034 C 
HETATM   18  C   UNL     1       3.429  -8.304   0.388  1.00  0.00     0.004 C 
HETATM   19  C   UNL     1       3.914  -9.548  -0.345  1.00  0.00     0.015 C 
HETATM   20  C   UNL     1       5.104  -9.386  -1.280  1.00  0.00     0.095 C 
HETATM   21  N   UNL     1       5.096  -8.233  -2.157  1.00  0.00    -0.261 NA
HETATM   22  C   UNL     1       5.507  -6.999  -1.705  1.00  0.00     0.220 C 
HETATM   23  H   UNL     1       5.566  -8.420  -3.036  1.00  0.00     0.130 HD
HETATM   24  O   UNL     1       6.370  -6.384  -2.335  1.00  0.00    -0.278 OA
ENDBRANCH   4  16
TORSDOF 2
