REMARK  3 active torsions:
REMARK  status: ('A' for Active; 'I' for Inactive)
REMARK    1  A    between atoms: N_3  and  C_16 
REMARK    2  A    between atoms: C_4  and  C_10 
REMARK       I    between atoms: C_7  and  N_9 
REMARK       I    between atoms: C_7  and  N_8 
REMARK    3  A    between atoms: N_9  and  C_10 
ROOT
HETATM    1  C   UNL     1      -1.493  -0.086  -0.001  1.00  0.00     0.329 C 
HETATM    2  N   UNL     1      -0.767   1.076  -0.045  1.00  0.00    -0.275 N 
HETATM    3  N   UNL     1      -0.742  -1.255   0.095  1.00  0.00    -0.305 N 
HETATM    4  C   UNL     1       1.351  -0.091  -0.060  1.00  0.00     0.043 C 
HETATM    5  C   UNL     1       0.643  -1.223   0.070  1.00  0.00     0.110 C 
HETATM    6  C   UNL     1       0.588   1.175  -0.160  1.00  0.00     0.258 C 
HETATM    7  O   UNL     1      -2.720  -0.034  -0.061  1.00  0.00    -0.246 OA
HETATM    8  O   UNL     1       1.144   2.250  -0.363  1.00  0.00    -0.267 OA
HETATM    9  H   UNL     1      -1.297   1.927  -0.138  1.00  0.00     0.173 HD
ENDROOT
BRANCH   4  10
HETATM   10  C   UNL     1       2.843   0.061  -0.136  1.00  0.00     0.170 C 
BRANCH  10  11
HETATM   11  N   UNL     1       3.538  -1.215  -0.200  1.00  0.00    -0.339 N 
HETATM   12  C   UNL     1       4.085  -1.797   0.915  1.00  0.00     0.318 C 
HETATM   13  N   UNL     1       4.839  -2.949   0.695  1.00  0.00    -0.330 N 
HETATM   14  O   UNL     1       3.899  -1.331   2.036  1.00  0.00    -0.247 OA
HETATM   15  C   UNL     1       5.459  -3.507   1.896  1.00  0.00     0.161 C 
HETATM   16  C   UNL     1       5.190  -3.437  -0.640  1.00  0.00     0.132 C 
HETATM   17  C   UNL     1       6.249  -4.766   1.697  1.00  0.00    -0.070 C 
HETATM   18  C   UNL     1       6.506  -5.309   0.499  1.00  0.00    -0.021 C 
HETATM   19  C   UNL     1       6.775  -5.421   2.945  1.00  0.00     0.044 C 
HETATM   20  C   UNL     1       6.021  -4.713  -0.770  1.00  0.00     0.047 C 
HETATM   21  H   UNL     1       3.831  -1.521  -1.111  1.00  0.00     0.164 HD
ENDBRANCH  10  11
ENDBRANCH   4  10
BRANCH   3  22
HETATM   22  C   UNL     1      -1.414  -2.572   0.150  1.00  0.00     0.086 C 
HETATM   23  C   UNL     1      -2.367  -2.710   1.340  1.00  0.00     0.032 C 
HETATM   24  C   UNL     1      -2.113  -2.910  -1.169  1.00  0.00     0.032 C 
ENDBRANCH   3  22
TORSDOF 3
