REMARK  4 active torsions:
REMARK  status: ('A' for Active; 'I' for Inactive)
REMARK    1  A    between atoms: N_2  and  C_4 
REMARK    2  A    between atoms: C_7  and  N_8 
REMARK       I    between atoms: N_8  and  C_9 
REMARK       I    between atoms: C_9  and  N_11 
REMARK    3  A    between atoms: N_11  and  C_12 
REMARK       I    between atoms: N_15  and  C_18 
REMARK    4  A    between atoms: C_18  and  C_20 
ROOT
HETATM    1  N   UNL     1       7.726  -6.713  -0.225  1.00  0.00    -0.308 N 
HETATM    2  C   UNL     1       6.871  -7.745   0.091  1.00  0.00     0.321 C 
HETATM    3  O   UNL     1       7.220  -8.818   0.559  1.00  0.00    -0.247 OA
HETATM    4  N   UNL     1       5.557  -7.477  -0.168  1.00  0.00    -0.338 N 
HETATM    5  H   UNL     1       7.363  -5.774  -0.150  1.00  0.00     0.170 HD
HETATM    6  H   UNL     1       5.345  -6.691  -0.768  1.00  0.00     0.164 HD
ENDROOT
BRANCH   1   7
HETATM    7  C   UNL     1       9.135  -6.885  -0.259  1.00  0.00     0.051 A 
HETATM    8  C   UNL     1       9.716  -8.127  -0.477  1.00  0.00     0.035 A 
HETATM    9  C   UNL     1      11.103  -8.265  -0.491  1.00  0.00     0.050 A 
HETATM   10  C   UNL     1      11.925  -7.154  -0.327  1.00  0.00     0.102 A 
HETATM   11  N   UNL     1      11.371  -5.934  -0.120  1.00  0.00    -0.350 N 
HETATM   12  C   UNL     1      10.011  -5.823  -0.098  1.00  0.00     0.119 A 
ATOM     13  HN  UNL     1      11.961  -5.113   0.017  1.00  0.00     0.166 HD
BRANCH  10  14
HETATM   14  N   UNL     1      13.317  -7.294  -0.362  1.00  0.00    -0.376 N 
HETATM   15  C   UNL     1      14.076  -6.059  -0.238  1.00  0.00     0.150 C 
HETATM   16  C   UNL     1      13.878  -8.350  -1.194  1.00  0.00     0.150 C 
ENDBRANCH  10  14
ENDBRANCH   1   7
BRANCH   4  17
HETATM   17  C   UNL     1       4.494  -8.466   0.066  1.00  0.00     0.089 C 
HETATM   18  C   UNL     1       4.203  -8.657   1.566  1.00  0.00     0.045 C 
HETATM   19  C   UNL     1       4.850  -9.892   2.180  1.00  0.00     0.127 C 
HETATM   20  N   UNL     1       4.525 -11.057   1.373  1.00  0.00    -0.352 N 
HETATM   21  C   UNL     1       5.106 -11.014   0.038  1.00  0.00     0.127 C 
HETATM   22  C   UNL     1       3.777 -12.158   1.776  1.00  0.00     0.224 C 
HETATM   23  C   UNL     1       4.649  -9.776  -0.744  1.00  0.00     0.045 C 
HETATM   24  O   UNL     1       3.557 -13.120   1.044  1.00  0.00    -0.273 OA
BRANCH  22  25
HETATM   25  C   UNL     1       3.228 -12.166   3.170  1.00  0.00     0.078 A 
HETATM   26  C   UNL     1       3.668 -13.248   4.132  1.00  0.00     0.015 A 
HETATM   27  C   UNL     1       2.257 -13.232   3.627  1.00  0.00     0.015 A 
ENDBRANCH  22  25
ENDBRANCH   4  17
TORSDOF 4
