REMARK  3 active torsions:
REMARK  status: ('A' for Active; 'I' for Inactive)
REMARK    1  A    between atoms: C_2  and  C_5 
REMARK       I    between atoms: C_5  and  N_7 
REMARK    2  A    between atoms: N_7  and  C_8 
REMARK    3  A    between atoms: C_11  and  N_15 
ROOT
HETATM    1  C   UNL     1       4.814  -2.603   1.684  1.00  0.00     0.050 A 
HETATM    2  C   UNL     1       5.906  -2.542   2.538  1.00  0.00     0.035 A 
HETATM    3  C   UNL     1       6.348  -3.691   3.189  1.00  0.00     0.051 A 
HETATM    4  C   UNL     1       5.706  -4.912   2.993  1.00  0.00     0.103 A 
HETATM    5  N   UNL     1       4.630  -4.991   2.184  1.00  0.00    -0.350 N 
ATOM      6  HN  UNL     1       4.150  -5.878   2.035  1.00  0.00     0.166 HD
HETATM    7  C   UNL     1       4.202  -3.847   1.570  1.00  0.00     0.119 A 
ENDROOT
BRANCH   1   8
HETATM    8  N   UNL     1       4.328  -1.474   0.972  1.00  0.00    -0.325 N 
HETATM    9  C   UNL     1       5.049  -0.307   0.759  1.00  0.00     0.229 C 
HETATM   10  O   UNL     1       6.237  -0.170   1.055  1.00  0.00    -0.272 OA
HETATM   11  H   UNL     1       3.447  -1.583   0.486  1.00  0.00     0.169 HD
BRANCH   9  12
HETATM   12  C   UNL     1       4.279   0.861   0.106  1.00  0.00     0.030 C 
HETATM   13  C   UNL     1       5.246   2.056  -0.047  1.00  0.00     0.025 C 
HETATM   14  C   UNL     1       3.114   1.294   1.007  1.00  0.00     0.025 C 
HETATM   15  C   UNL     1       3.761   0.475  -1.284  1.00  0.00     0.025 C 
ENDBRANCH   9  12
ENDBRANCH   1   8
BRANCH   4  16
HETATM   16  N   UNL     1       6.239  -6.041   3.591  1.00  0.00    -0.363 N 
HETATM   17  C   UNL     1       6.012  -7.358   2.989  1.00  0.00     0.150 C 
HETATM   18  C   UNL     1       5.025  -8.197   3.808  1.00  0.00     0.187 C 
HETATM   19  O   UNL     1       5.414  -8.267   5.192  1.00  0.00    -0.388 OA
HETATM   20  C   UNL     1       5.434  -6.947   5.756  1.00  0.00     0.187 C 
HETATM   21  C   UNL     1       6.451  -6.040   5.045  1.00  0.00     0.150 C 
ENDBRANCH   4  16
TORSDOF 3
