REMARK  4 active torsions:
REMARK  status: ('A' for Active; 'I' for Inactive)
REMARK    1  A    between atoms: C_2  and  C_3 
REMARK    2  A    between atoms: C_2  and  C_14 
REMARK    3  A    between atoms: C_3  and  N_4 
REMARK       I    between atoms: N_4  and  C_5 
REMARK       I    between atoms: C_5  and  N_7 
REMARK    4  A    between atoms: N_7  and  C_8 
ROOT
HETATM    1  N   UNL     1       2.368   2.547   0.524  1.00  0.00    -0.342 N 
HETATM    2  C   UNL     1       2.617   3.661   1.281  1.00  0.00     0.316 C 
HETATM    3  O   UNL     1       3.241   3.641   2.332  1.00  0.00    -0.247 OA
HETATM    4  N   UNL     1       2.049   4.791   0.747  1.00  0.00    -0.338 N 
HETATM    5  H   UNL     1       1.947   2.660  -0.385  1.00  0.00     0.164 HD
HETATM    6  H   UNL     1       1.976   4.801  -0.259  1.00  0.00     0.164 HD
ENDROOT
BRANCH   1   7
HETATM    7  C   UNL     1       2.871   1.230   0.902  1.00  0.00     0.135 C 
BRANCH   7   8
HETATM    8  C   UNL     1       4.291   0.966   0.375  1.00  0.00     0.057 C 
HETATM    9  C   UNL     1       4.312   0.927  -1.157  1.00  0.00     0.018 C 
BRANCH   8  10
HETATM   10  C   UNL     1       4.836  -0.331   0.925  1.00  0.00     0.056 A 
HETATM   11  N   UNL     1       4.320  -1.524   0.699  1.00  0.00    -0.357 N 
HETATM   12  C   UNL     1       5.103  -2.505   1.291  1.00  0.00     0.012 A 
ATOM     13  HN  UNL     1       3.468  -1.700   0.166  1.00  0.00     0.166 HD
HETATM   14  C   UNL     1       4.721  -3.934   1.145  1.00  0.00     0.068 C 
HETATM   15  C   UNL     1       6.208  -2.030   1.971  1.00  0.00     0.076 A 
HETATM   16  S   UNL     1       6.268  -0.323   1.880  1.00  0.00    -0.086 SA
ENDBRANCH   8  10
ENDBRANCH   7   8
ENDBRANCH   1   7
BRANCH   4  17
HETATM   17  C   UNL     1       2.270   6.091   1.387  1.00  0.00     0.095 C 
HETATM   18  C   UNL     1       1.117   7.061   1.092  1.00  0.00     0.027 C 
HETATM   19  C   UNL     1       1.030   7.539  -0.357  1.00  0.00     0.012 C 
HETATM   20  C   UNL     1       2.306   8.198  -0.869  1.00  0.00     0.074 C 
HETATM   21  S   UNL     1       3.734   7.083  -0.770  1.00  0.00    -0.167 SA
HETATM   22  C   UNL     1       3.634   6.687   1.010  1.00  0.00     0.099 C 
ENDBRANCH   4  17
TORSDOF 4
