REMARK  6 active torsions:
REMARK  status: ('A' for Active; 'I' for Inactive)
REMARK    1  A    between atoms: C_2  and  C_3 
REMARK    2  A    between atoms: C_3  and  S_4 
REMARK    3  A    between atoms: S_4  and  C_5 
REMARK    4  A    between atoms: C_10  and  C_11 
REMARK    5  A    between atoms: N_14  and  C_15 
REMARK    6  A    between atoms: C_15  and  C_16 
REMARK       I    between atoms: C_16  and  N_18 
ROOT
HETATM    1  C   UNL     1       5.247  -2.914   1.791  1.00  0.00     0.163 A 
HETATM    2  N   UNL     1       4.850  -4.100   1.399  1.00  0.00    -0.278 N 
ATOM      3  HN  UNL     1       4.240  -4.298   0.606  1.00  0.00     0.189 HD
HETATM    4  N   UNL     1       5.402  -5.026   2.245  1.00  0.00    -0.286 N 
ATOM      5  HN  UNL     1       5.282  -6.037   2.185  1.00  0.00     0.188 HD
HETATM    6  C   UNL     1       6.114  -4.385   3.150  1.00  0.00     0.104 A 
HETATM    7  N   UNL     1       6.058  -3.034   2.890  1.00  0.00    -0.306 N 
ENDROOT
BRANCH   7   8
HETATM    8  C   UNL     1       6.784  -1.988   3.580  1.00  0.00     0.235 C 
BRANCH   8   9
HETATM    9  C   UNL     1       6.561  -1.955   5.077  1.00  0.00     0.233 C 
HETATM   10  O   UNL     1       7.490  -1.988   5.881  1.00  0.00    -0.272 OA
HETATM   11  N   UNL     1       5.280  -1.824   5.518  1.00  0.00    -0.369 N 
HETATM   12  H   UNL     1       4.465  -1.934   4.928  1.00  0.00     0.159 HD
HETATM   13  H   UNL     1       5.133  -1.832   6.522  1.00  0.00     0.159 HD
ENDBRANCH   8   9
ENDBRANCH   7   8
BRANCH   1  14
HETATM   14  S   UNL     1       4.819  -1.415   1.040  1.00  0.00    -0.092 SA
BRANCH  14  15
HETATM   15  C   UNL     1       3.391  -1.935   0.028  1.00  0.00     0.082 C 
BRANCH  15  16
HETATM   16  C   UNL     1       2.910  -0.768  -0.834  1.00  0.00     0.006 C 
HETATM   17  C   UNL     1       1.651  -1.126  -1.612  1.00  0.00     0.006 C 
ENDBRANCH  15  16
ENDBRANCH  14  15
ENDBRANCH   1  14
BRANCH   6  18
HETATM   18  C   UNL     1       6.823  -5.094   4.298  1.00  0.00     0.055 A 
HETATM   19  C   UNL     1       7.397  -6.478   4.076  1.00  0.00     0.013 A 
HETATM   20  C   UNL     1       6.133  -6.330   4.850  1.00  0.00     0.013 A 
ENDBRANCH   6  18
TORSDOF 6
