REMARK  5 active torsions:
REMARK  status: ('A' for Active; 'I' for Inactive)
REMARK    1  A    between atoms: C_2  and  C_3 
REMARK    2  A    between atoms: C_2  and  N_10 
REMARK    3  A    between atoms: C_3  and  N_4 
REMARK       I    between atoms: N_10  and  C_11 
REMARK       I    between atoms: C_11  and  N_13 
REMARK    4  A    between atoms: N_13  and  C_14 
REMARK    5  A    between atoms: C_14  and  C_15 
ROOT
HETATM    1  N   UNL     1       3.115   1.224  -0.620  1.00  0.00    -0.337 N 
HETATM    2  C   UNL     1       4.460   1.450  -0.476  1.00  0.00     0.316 C 
HETATM    3  O   UNL     1       5.236   0.659   0.039  1.00  0.00    -0.247 OA
HETATM    4  N   UNL     1       4.837   2.649  -1.018  1.00  0.00    -0.343 N 
HETATM    5  H   UNL     1       2.549   2.061  -0.588  1.00  0.00     0.164 HD
HETATM    6  H   UNL     1       4.149   3.188  -1.521  1.00  0.00     0.164 HD
ENDROOT
BRANCH   1   7
HETATM    7  C   UNL     1       2.491  -0.014  -0.119  1.00  0.00     0.100 C 
HETATM    8  C   UNL     1       0.982   0.077  -0.345  1.00  0.00     0.034 C 
BRANCH   7   9
HETATM    9  C   UNL     1       3.104  -1.262  -0.794  1.00  0.00     0.153 C 
BRANCH   9  10
HETATM   10  N   UNL     1       2.518  -2.530  -0.415  1.00  0.00    -0.350 N 
HETATM   11  C   UNL     1       1.934  -3.428  -1.262  1.00  0.00     0.108 A 
HETATM   12  C   UNL     1       1.612  -4.505  -0.471  1.00  0.00     0.106 A 
HETATM   13  N   UNL     1       1.985  -4.281   0.828  1.00  0.00    -0.361 N 
HETATM   14  C   UNL     1       2.553  -3.094   0.830  1.00  0.00     0.182 A 
ATOM     15  HN  UNL     1       1.851  -4.903   1.625  1.00  0.00     0.166 HD
ENDBRANCH   9  10
ENDBRANCH   7   9
ENDBRANCH   1   7
BRANCH   4  16
HETATM   16  C   UNL     1       6.227   3.060  -1.061  1.00  0.00     0.131 C 
BRANCH  16  17
HETATM   17  C   UNL     1       6.977   2.551  -2.290  1.00  0.00     0.029 C 
HETATM   18  C   UNL     1       8.443   2.955  -2.285  1.00  0.00     0.034 C 
HETATM   19  C   UNL     1       8.785   3.205  -3.742  1.00  0.00     0.168 C 
HETATM   20  O   UNL     1       7.584   3.051  -4.504  1.00  0.00    -0.391 OA
HETATM   21  C   UNL     1       6.481   3.133  -3.598  1.00  0.00     0.173 C 
ENDBRANCH  16  17
ENDBRANCH   4  16
TORSDOF 5
