REMARK  4 active torsions:
REMARK  status: ('A' for Active; 'I' for Inactive)
REMARK    1  A    between atoms: C_2  and  N_3 
REMARK    2  A    between atoms: C_2  and  C_16 
REMARK       I    between atoms: N_3  and  C_4 
REMARK    3  A    between atoms: C_4  and  C_6 
REMARK    4  A    between atoms: C_6  and  C_7 
ROOT
HETATM    1  N   UNL     1       2.913  -0.133  -1.503  1.00  0.00    -0.354 N 
HETATM    2  C   UNL     1       2.804  -1.335  -2.173  1.00  0.00     0.222 C 
HETATM    3  O   UNL     1       2.373  -2.352  -1.633  1.00  0.00    -0.273 OA
HETATM    4  H   UNL     1       3.430   0.622  -1.936  1.00  0.00     0.162 HD
ENDROOT
BRANCH   2   5
HETATM    5  C   UNL     1       3.268  -1.317  -3.622  1.00  0.00     0.145 C 
BRANCH   5   6
HETATM    6  C   UNL     1       2.212  -0.875  -4.583  1.00  0.00    -0.002 A 
HETATM    7  C   UNL     1       0.955  -1.491  -4.857  1.00  0.00     0.030 A 
HETATM    8  C   UNL     1       0.349  -2.712  -4.267  1.00  0.00     0.070 C 
HETATM    9  N   UNL     1       0.276  -0.835  -5.804  1.00  0.00    -0.303 N 
HETATM   10  N   UNL     1       1.083   0.171  -6.165  1.00  0.00    -0.300 N 
ATOM     11  HN  UNL     1      -0.651  -1.053  -6.170  1.00  0.00     0.186 HD
HETATM   12  C   UNL     1       0.650   1.066  -7.214  1.00  0.00     0.177 C 
HETATM   13  C   UNL     1       2.271   0.189  -5.480  1.00  0.00     0.033 A 
HETATM   14  C   UNL     1       3.356   1.170  -5.739  1.00  0.00     0.070 C 
ENDBRANCH   5   6
ENDBRANCH   2   5
BRANCH   1  15
HETATM   15  C   UNL     1       2.570  -0.007  -0.083  1.00  0.00     0.109 C 
HETATM   16  C   UNL     1       2.230   1.454   0.212  1.00  0.00     0.035 C 
BRANCH  15  17
HETATM   17  C   UNL     1       3.689  -0.569   0.829  1.00  0.00     0.143 C 
HETATM   18  C   UNL     1       3.334  -0.644   2.314  1.00  0.00     0.036 C 
HETATM   19  C   UNL     1       4.592  -0.206   3.040  1.00  0.00     0.029 C 
HETATM   20  C   UNL     1       5.628  -0.068   1.949  1.00  0.00     0.168 C 
HETATM   21  O   UNL     1       4.887   0.233   0.762  1.00  0.00    -0.384 OA
ENDBRANCH  15  17
ENDBRANCH   1  15
TORSDOF 4
