REMARK  4 active torsions:
REMARK  status: ('A' for Active; 'I' for Inactive)
REMARK    1  A    between atoms: C_8  and  C_9 
REMARK    2  A    between atoms: C_9  and  C_10 
REMARK    3  A    between atoms: C_10  and  N_11 
REMARK       I    between atoms: N_11  and  C_12 
REMARK       I    between atoms: C_12  and  N_14 
REMARK    4  A    between atoms: N_14  and  C_15 
ROOT
HETATM    1  N   UNL     1       3.226   4.899  -1.559  1.00  0.00    -0.343 N 
HETATM    2  C   UNL     1       2.904   6.041  -0.851  1.00  0.00     0.321 C 
HETATM    3  O   UNL     1       3.133   6.131   0.348  1.00  0.00    -0.247 OA
HETATM    4  N   UNL     1       2.245   6.955  -1.639  1.00  0.00    -0.293 N 
HETATM    5  H   UNL     1       3.367   4.982  -2.556  1.00  0.00     0.164 HD
HETATM    6  H   UNL     1       1.866   6.630  -2.514  1.00  0.00     0.172 HD
ENDROOT
BRANCH   1   7
HETATM    7  C   UNL     1       3.750   3.734  -0.882  1.00  0.00     0.125 C 
BRANCH   7   8
HETATM    8  C   UNL     1       2.835   2.516  -1.019  1.00  0.00     0.040 C 
BRANCH   8   9
HETATM    9  C   UNL     1       1.419   2.663  -0.473  1.00  0.00     0.128 C 
HETATM   10  C   UNL     1       1.274   3.184   0.936  1.00  0.00     0.013 C 
HETATM   11  C   UNL     1       2.001   2.590   2.095  1.00  0.00     0.066 C 
HETATM   12  N   UNL     1       0.405   4.142   1.052  1.00  0.00    -0.306 N 
HETATM   13  N   UNL     1      -0.038   4.413  -0.213  1.00  0.00    -0.270 N 
ATOM     14  HN  UNL     1       0.111   4.601   1.914  1.00  0.00     0.186 HD
HETATM   15  C   UNL     1       0.563   3.663  -1.212  1.00  0.00     0.245 C 
HETATM   16  H   UNL     1      -0.633   5.216  -0.378  1.00  0.00     0.190 HD
HETATM   17  O   UNL     1       0.424   3.789  -2.418  1.00  0.00    -0.271 OA
ENDBRANCH   8   9
ENDBRANCH   7   8
ENDBRANCH   1   7
BRANCH   4  18
HETATM   18  C   UNL     1       1.759   8.153  -1.143  1.00  0.00     0.132 A 
HETATM   19  C   UNL     1       0.807   8.970  -1.802  1.00  0.00     0.084 A 
HETATM   20  C   UNL     1       0.552   9.988  -0.914  1.00  0.00     0.076 A 
HETATM   21  C   UNL     1      -0.367  11.136  -0.875  1.00  0.00     0.079 C 
HETATM   22  O   UNL     1       1.350   9.836   0.171  1.00  0.00    -0.241 OA
HETATM   23  N   UNL     1       2.111   8.701   0.025  1.00  0.00    -0.245 N 
ATOM     24  HN  UNL     1       2.808   8.346   0.680  1.00  0.00     0.196 HD
ENDBRANCH   4  18
TORSDOF 4
