REMARK  5 active torsions:
REMARK  status: ('A' for Active; 'I' for Inactive)
REMARK    1  A    between atoms: O_1  and  C_2 
REMARK    2  A    between atoms: C_2  and  C_4 
REMARK    3  A    between atoms: C_4  and  N_5 
REMARK    4  A    between atoms: N_10  and  C_11 
REMARK    5  A    between atoms: C_11  and  C_12 
ROOT
HETATM    1  N   UNL     1       4.453   0.173  -0.873  1.00  0.00    -0.256 N 
HETATM    2  C   UNL     1       5.228   1.308  -0.937  1.00  0.00     0.253 C 
HETATM    3  O   UNL     1       4.798   2.386  -1.336  1.00  0.00    -0.268 OA
HETATM    4  C   UNL     1       6.651   1.160  -0.605  1.00  0.00     0.092 C 
HETATM    5  C   UNL     1       7.147  -0.068  -0.468  1.00  0.00     0.101 C 
HETATM    6  N   UNL     1       6.353  -1.189  -0.559  1.00  0.00    -0.305 N 
HETATM    7  C   UNL     1       4.971  -1.111  -0.722  1.00  0.00     0.332 C 
HETATM    8  O   UNL     1       4.248  -2.107  -0.725  1.00  0.00    -0.246 OA
ENDROOT
BRANCH   6   9
HETATM    9  C   UNL     1       6.960  -2.514  -0.411  1.00  0.00     0.171 C 
BRANCH   9  10
HETATM   10  C   UNL     1       7.505  -3.097  -1.697  1.00  0.00    -0.040 A 
HETATM   11  C   UNL     1       8.824  -2.843  -2.102  1.00  0.00     0.009 A 
HETATM   12  C   UNL     1       9.359  -3.477  -3.228  1.00  0.00     0.001 A 
HETATM   13  C   UNL     1       8.581  -4.366  -3.965  1.00  0.00     0.000 A 
HETATM   14  C   UNL     1       7.257  -4.596  -3.598  1.00  0.00     0.001 A 
HETATM   15  C   UNL     1       6.719  -3.957  -2.477  1.00  0.00     0.009 A 
ENDBRANCH   9  10
ENDBRANCH   6   9
BRANCH   1  16
HETATM   16  C   UNL     1       3.024   0.303  -1.137  1.00  0.00     0.246 C 
BRANCH  16  17
HETATM   17  C   UNL     1       2.752   0.265  -2.633  1.00  0.00     0.158 C 
HETATM   18  O   UNL     1       1.960  -0.502  -3.162  1.00  0.00    -0.649 OA
BRANCH  17  19
HETATM   19  O   UNL     1       3.386   1.233  -3.341  1.00  0.00    -0.775 OA
HETATM   20  H   UNL     1       3.884   1.877  -2.784  1.00  0.00     0.167 HD
ENDBRANCH  17  19
ENDBRANCH  16  17
ENDBRANCH   1  16
TORSDOF 5
