REMARK  4 active torsions:
REMARK  status: ('A' for Active; 'I' for Inactive)
REMARK    1  A    between atoms: C_2  and  C_3 
REMARK    2  A    between atoms: C_6  and  C_7 
REMARK    3  A    between atoms: C_7  and  C_8 
REMARK    4  A    between atoms: C_8  and  N_9 
REMARK       I    between atoms: N_9  and  C_10 
REMARK       I    between atoms: C_10  and  N_12 
ROOT
HETATM    1  C   UNL     1       2.648  -4.839   1.800  1.00  0.00     0.131 C 
ENDROOT
BRANCH   1   2
HETATM    2  C   UNL     1       3.114  -4.000   2.995  1.00  0.00     0.084 C 
BRANCH   2   3
HETATM    3  C   UNL     1       3.073  -2.538   2.679  1.00  0.00     0.053 A 
HETATM    4  N   UNL     1       2.173  -1.962   1.913  1.00  0.00    -0.356 N 
HETATM    5  C   UNL     1       2.425  -0.603   1.816  1.00  0.00     0.022 A 
ATOM      6  HN  UNL     1       1.400  -2.446   1.456  1.00  0.00     0.166 HD
HETATM    7  C   UNL     1       3.522  -0.162   2.538  1.00  0.00     0.003 A 
HETATM    8  S   UNL     1       4.251  -1.482   3.347  1.00  0.00    -0.080 SA
HETATM    9  C   UNL     1       4.079   1.211   2.669  1.00  0.00     0.058 C 
BRANCH   5  10
HETATM   10  C   UNL     1       1.508   0.219   0.969  1.00  0.00     0.054 C 
HETATM   11  C   UNL     1       0.313   0.735   1.754  1.00  0.00     0.011 C 
ENDBRANCH   5  10
ENDBRANCH   2   3
ENDBRANCH   1   2
BRANCH   1  12
HETATM   12  N   UNL     1       2.676  -6.282   2.020  1.00  0.00    -0.343 N 
HETATM   13  C   UNL     1       3.860  -6.927   2.282  1.00  0.00     0.318 C 
HETATM   14  O   UNL     1       4.919  -6.316   2.396  1.00  0.00    -0.247 OA
HETATM   15  N   UNL     1       3.772  -8.299   2.436  1.00  0.00    -0.333 N 
HETATM   16  C   UNL     1       2.549  -9.112   2.414  1.00  0.00     0.137 C 
HETATM   17  C   UNL     1       4.995  -9.025   2.809  1.00  0.00     0.137 C 
HETATM   18  C   UNL     1       2.218  -9.727   3.777  1.00  0.00     0.093 C 
HETATM   19  S   UNL     1       3.558 -10.797   4.394  1.00  0.00    -0.166 SA
HETATM   20  C   UNL     1       4.924  -9.597   4.227  1.00  0.00     0.093 C 
HETATM   21  H   UNL     1       2.066  -6.792   1.406  1.00  0.00     0.164 HD
ENDBRANCH   1  12
TORSDOF 4
