REMARK  4 active torsions:
REMARK  status: ('A' for Active; 'I' for Inactive)
REMARK       I    between atoms: N_1  and  C_2 
REMARK    1  A    between atoms: C_2  and  C_4 
REMARK    2  A    between atoms: C_4  and  N_5 
REMARK    3  A    between atoms: C_7  and  N_8 
REMARK       I    between atoms: N_8  and  C_9 
REMARK       I    between atoms: C_9  and  N_11 
REMARK    4  A    between atoms: C_15  and  O_16 
ROOT
HETATM    1  N   UNL     1       4.667   0.791  -0.524  1.00  0.00    -0.293 N 
HETATM    2  C   UNL     1       5.544   1.834  -0.420  1.00  0.00     0.141 A 
HETATM    3  C   UNL     1       6.804   1.287  -0.403  1.00  0.00     0.070 A 
HETATM    4  C   UNL     1       6.580  -0.102  -0.520  1.00  0.00     0.138 A 
HETATM    5  N   UNL     1       5.283  -0.414  -0.598  1.00  0.00    -0.307 N 
ATOM      6  HN  UNL     1       4.859  -1.337  -0.691  1.00  0.00     0.186 HD
ENDROOT
BRANCH   3   7
HETATM    7  N   UNL     1       8.033   1.917  -0.302  1.00  0.00    -0.306 N 
HETATM    8  C   UNL     1       8.230   3.275  -0.203  1.00  0.00     0.323 C 
HETATM    9  O   UNL     1       7.311   4.094  -0.179  1.00  0.00    -0.247 OA
HETATM   10  N   UNL     1       9.559   3.691  -0.139  1.00  0.00    -0.332 N 
HETATM   11  C   UNL     1       9.828   5.127  -0.014  1.00  0.00     0.127 C 
HETATM   12  C   UNL     1      10.762   2.853  -0.132  1.00  0.00     0.159 C 
HETATM   13  C   UNL     1      10.794   5.606  -1.099  1.00  0.00     0.022 C 
HETATM   14  C   UNL     1      12.071   4.770  -1.119  1.00  0.00     0.035 C 
HETATM   15  C   UNL     1      11.743   3.280  -1.233  1.00  0.00     0.136 C 
HETATM   16  H   UNL     1       8.821   1.298  -0.297  1.00  0.00     0.171 HD
BRANCH  15  17
HETATM   17  O   UNL     1      12.937   2.507  -1.159  1.00  0.00    -0.394 OA
HETATM   18  H   UNL     1      13.433   2.780  -0.368  1.00  0.00     0.210 HD
ENDBRANCH  15  17
ENDBRANCH   3   7
BRANCH   1  19
HETATM   19  C   UNL     1       3.219   0.878  -0.600  1.00  0.00     0.250 C 
BRANCH  19  20
HETATM   20  C   UNL     1       2.507   0.233   0.570  1.00  0.00     0.235 C 
HETATM   21  N   UNL     1       3.039  -0.917   1.077  1.00  0.00    -0.369 N 
HETATM   22  H   UNL     1       2.588  -1.370   1.860  1.00  0.00     0.159 HD
HETATM   23  H   UNL     1       3.938  -1.264   0.746  1.00  0.00     0.159 HD
HETATM   24  O   UNL     1       1.441   0.659   1.006  1.00  0.00    -0.272 OA
ENDBRANCH  19  20
ENDBRANCH   1  19
TORSDOF 4
