REMARK  6 active torsions:
REMARK  status: ('A' for Active; 'I' for Inactive)
REMARK    1  A    between atoms: C_2  and  C_3 
REMARK    2  A    between atoms: C_2  and  C_10 
REMARK    3  A    between atoms: C_3  and  C_4 
REMARK       I    between atoms: C_10  and  N_12 
REMARK    4  A    between atoms: N_12  and  C_13 
REMARK    5  A    between atoms: C_13  and  C_14 
REMARK    6  A    between atoms: C_14  and  C_15 
ROOT
HETATM    1  C   UNL     1       3.025   1.187   1.203  1.00  0.00     0.221 C 
HETATM    2  O   UNL     1       2.390   1.564   2.185  1.00  0.00    -0.273 OA
HETATM    3  N   UNL     1       4.346   1.529   1.022  1.00  0.00    -0.360 N 
HETATM    4  H   UNL     1       4.886   1.114   0.277  1.00  0.00     0.162 HD
ENDROOT
BRANCH   1   5
HETATM    5  C   UNL     1       2.436   0.225   0.166  1.00  0.00     0.074 C 
HETATM    6  C   UNL     1       0.912   0.175   0.309  1.00  0.00     0.020 C 
BRANCH   5   7
HETATM    7  C   UNL     1       2.906   0.433  -1.291  1.00  0.00     0.018 C 
BRANCH   7   8
HETATM    8  C   UNL     1       2.738   1.831  -1.938  1.00  0.00    -0.014 C 
HETATM    9  C   UNL     1       1.287   2.268  -2.193  1.00  0.00     0.005 C 
HETATM   10  C   UNL     1       0.590   1.404  -3.239  1.00  0.00     0.000 C 
HETATM   11  C   UNL     1       1.347   1.444  -4.562  1.00  0.00     0.000 C 
HETATM   12  C   UNL     1       2.820   1.077  -4.393  1.00  0.00     0.000 C 
HETATM   13  C   UNL     1       3.497   1.885  -3.285  1.00  0.00     0.005 C 
ENDBRANCH   7   8
ENDBRANCH   5   7
ENDBRANCH   1   5
BRANCH   3  14
HETATM   14  C   UNL     1       5.027   2.425   1.938  1.00  0.00     0.128 C 
BRANCH  14  15
HETATM   15  C   UNL     1       5.754   1.666   3.048  1.00  0.00     0.077 C 
BRANCH  15  16
HETATM   16  C   UNL     1       6.372   2.599   4.035  1.00  0.00     0.017 A 
HETATM   17  C   UNL     1       5.774   3.090   5.183  1.00  0.00     0.076 A 
HETATM   18  S   UNL     1       6.849   4.141   6.004  1.00  0.00    -0.095 SA
HETATM   19  C   UNL     1       8.018   3.865   4.781  1.00  0.00     0.138 A 
HETATM   20  N   UNL     1       7.662   3.054   3.809  1.00  0.00    -0.363 N 
ATOM     21  HN  UNL     1       8.245   2.799   3.012  1.00  0.00     0.165 HD
ENDBRANCH  15  16
ENDBRANCH  14  15
ENDBRANCH   3  14
TORSDOF 6
