REMARK  3 active torsions:
REMARK  status: ('A' for Active; 'I' for Inactive)
REMARK    1  A    between atoms: O_2  and  C_3 
REMARK    2  A    between atoms: C_6  and  N_7 
REMARK       I    between atoms: N_7  and  C_8 
REMARK    3  A    between atoms: C_8  and  C_10 
ROOT
HETATM    1  C   UNL     1       2.780   1.333   0.703  1.00  0.00     0.141 A 
HETATM    2  C   UNL     1       3.861   1.087   1.527  1.00  0.00     0.058 A 
HETATM    3  C   UNL     1       4.732   2.136   1.812  1.00  0.00     0.035 A 
HETATM    4  C   UNL     1       4.510   3.403   1.272  1.00  0.00     0.050 A 
HETATM    5  C   UNL     1       3.382   3.543   0.463  1.00  0.00     0.119 A 
HETATM    6  N   UNL     1       2.514   2.541   0.161  1.00  0.00    -0.345 N 
ATOM      7  HN  UNL     1       1.706   2.693  -0.442  1.00  0.00     0.167 HD
ENDROOT
BRANCH   4   8
HETATM    8  N   UNL     1       5.348   4.516   1.520  1.00  0.00    -0.324 N 
HETATM    9  C   UNL     1       6.599   4.467   2.106  1.00  0.00     0.251 C 
HETATM   10  O   UNL     1       7.199   3.442   2.428  1.00  0.00    -0.270 OA
HETATM   11  H   UNL     1       5.050   5.433   1.195  1.00  0.00     0.169 HD
BRANCH   9  12
HETATM   12  C   UNL     1       7.257   5.829   2.333  1.00  0.00     0.213 C 
HETATM   13  C   UNL     1       7.584   5.990   3.811  1.00  0.00     0.044 C 
HETATM   14  C   UNL     1       7.606   7.486   4.031  1.00  0.00     0.029 C 
HETATM   15  C   UNL     1       7.208   8.066   2.688  1.00  0.00     0.168 C 
HETATM   16  O   UNL     1       6.527   7.006   1.992  1.00  0.00    -0.376 OA
ENDBRANCH   9  12
ENDBRANCH   4   8
BRANCH   1  17
HETATM   17  O   UNL     1       1.947   0.257   0.467  1.00  0.00    -0.341 OA
HETATM   18  C   UNL     1       0.855   0.570  -0.388  1.00  0.00     0.211 C 
ENDBRANCH   1  17
TORSDOF 3
