REMARK  3 active torsions:
REMARK  status: ('A' for Active; 'I' for Inactive)
REMARK    1  A    between atoms: C_2  and  N_3 
REMARK    2  A    between atoms: C_2  and  C_15 
REMARK       I    between atoms: N_3  and  C_4 
REMARK       I    between atoms: C_4  and  N_6 
REMARK    3  A    between atoms: N_6  and  C_7 
ROOT
HETATM    1  N   UNL     1       3.096   0.895  -1.021  1.00  0.00    -0.338 N 
HETATM    2  C   UNL     1       2.782   0.636  -2.323  1.00  0.00     0.322 C 
HETATM    3  O   UNL     1       2.278  -0.389  -2.746  1.00  0.00    -0.247 OA
HETATM    4  N   UNL     1       3.058   1.750  -3.164  1.00  0.00    -0.293 N 
HETATM    5  H   UNL     1       3.482   1.774  -0.718  1.00  0.00     0.164 HD
HETATM    6  H   UNL     1       3.358   2.617  -2.750  1.00  0.00     0.172 HD
ENDROOT
BRANCH   4   7
HETATM    7  C   UNL     1       2.839   1.709  -4.542  1.00  0.00     0.127 A 
HETATM    8  C   UNL     1       2.655   0.602  -5.341  1.00  0.00     0.076 A 
HETATM    9  C   UNL     1       2.428   1.096  -6.643  1.00  0.00     0.025 A 
HETATM   10  C   UNL     1       2.117   0.318  -7.868  1.00  0.00     0.070 C 
HETATM   11  N   UNL     1       2.509   2.430  -6.681  1.00  0.00    -0.302 N 
HETATM   12  N   UNL     1       2.762   2.779  -5.406  1.00  0.00    -0.281 N 
ATOM     13  HN  UNL     1       2.403   3.042  -7.490  1.00  0.00     0.186 HD
HETATM   14  C   UNL     1       2.819   4.183  -5.072  1.00  0.00     0.179 C 
ENDBRANCH   4   7
BRANCH   1  15
HETATM   15  C   UNL     1       2.701  -0.070  -0.008  1.00  0.00     0.086 C 
HETATM   16  C   UNL     1       1.255   0.171   0.427  1.00  0.00     0.032 C 
BRANCH  15  17
HETATM   17  C   UNL     1       3.626   0.000   1.177  1.00  0.00     0.008 A 
HETATM   18  C   UNL     1       5.113  -0.240   1.063  1.00  0.00     0.007 A 
HETATM   19  C   UNL     1       4.236  -1.285   1.686  1.00  0.00     0.007 A 
ENDBRANCH  15  17
ENDBRANCH   1  15
TORSDOF 3
