REMARK  6 active torsions:
REMARK  status: ('A' for Active; 'I' for Inactive)
REMARK    1  A    between atoms: C_2  and  C_3 
REMARK       I    between atoms: C_2  and  N_10 
REMARK    2  A    between atoms: C_3  and  O_4 
REMARK    3  A    between atoms: O_4  and  C_5 
REMARK    4  A    between atoms: N_10  and  C_11 
REMARK    5  A    between atoms: C_11  and  C_12 
REMARK    6  A    between atoms: C_12  and  C_13 
ROOT
HETATM    1  O   UNL     1       1.479   0.159   0.887  1.00  0.00    -0.271 OA
HETATM    2  C   UNL     1       2.232   0.211  -0.082  1.00  0.00     0.241 C 
HETATM    3  N   UNL     1       2.446   1.375  -0.800  1.00  0.00    -0.359 N 
HETATM    4  H   UNL     1       2.906   1.314  -1.699  1.00  0.00     0.162 HD
ENDROOT
BRANCH   3   5
HETATM    5  C   UNL     1       1.755   2.613  -0.480  1.00  0.00     0.128 C 
BRANCH   5   6
HETATM    6  C   UNL     1       2.222   3.236   0.837  1.00  0.00     0.077 C 
BRANCH   6   7
HETATM    7  C   UNL     1       1.570   4.555   1.097  1.00  0.00     0.017 A 
HETATM    8  C   UNL     1       0.388   4.765   1.783  1.00  0.00     0.076 A 
HETATM    9  S   UNL     1       0.038   6.442   1.857  1.00  0.00    -0.095 SA
HETATM   10  C   UNL     1       1.476   6.757   0.979  1.00  0.00     0.138 A 
HETATM   11  N   UNL     1       2.184   5.706   0.628  1.00  0.00    -0.363 N 
ATOM     12  HN  UNL     1       3.052   5.733   0.093  1.00  0.00     0.165 HD
ENDBRANCH   6   7
ENDBRANCH   5   6
ENDBRANCH   3   5
BRANCH   2  13
HETATM   13  C   UNL     1       3.061  -0.986  -0.570  1.00  0.00     0.270 C 
BRANCH  13  14
HETATM   14  O   UNL     1       2.271  -2.139  -0.824  1.00  0.00    -0.377 OA
BRANCH  14  15
HETATM   15  C   UNL     1       3.026  -3.236  -1.325  1.00  0.00     0.122 C 
HETATM   16  C   UNL     1       2.100  -4.421  -1.619  1.00  0.00     0.032 C 
HETATM   17  C   UNL     1       2.868  -5.681  -1.215  1.00  0.00     0.002 C 
HETATM   18  C   UNL     1       4.257  -5.212  -0.807  1.00  0.00     0.002 C 
HETATM   19  C   UNL     1       4.030  -3.793  -0.320  1.00  0.00     0.032 C 
ENDBRANCH  14  15
ENDBRANCH  13  14
ENDBRANCH   2  13
TORSDOF 6
