REMARK  6 active torsions:
REMARK  status: ('A' for Active; 'I' for Inactive)
REMARK    1  A    between atoms: N_4  and  C_5 
REMARK    2  A    between atoms: C_5  and  C_6 
REMARK    3  A    between atoms: C_6  and  O_9 
REMARK       I    between atoms: N_12  and  C_13 
REMARK       I    between atoms: C_13  and  N_15 
REMARK    4  A    between atoms: N_15  and  C_16 
REMARK    5  A    between atoms: C_16  and  C_17 
REMARK    6  A    between atoms: C_17  and  C_20 
ROOT
HETATM    1  C   UNL     1       0.900  -0.184   0.186  1.00  0.00     0.034 C 
HETATM    2  C   UNL     1       2.428  -0.245   0.078  1.00  0.00     0.113 C 
HETATM    3  C   UNL     1       2.966   0.787  -0.957  1.00  0.00     0.297 C 
HETATM    4  N   UNL     1       2.605   0.459  -2.366  1.00  0.00     0.095 N 
HETATM    5  C   UNL     1       3.098  -0.910  -2.663  1.00  0.00     0.292 C 
HETATM    6  C   UNL     1       2.592  -1.973  -1.669  1.00  0.00     0.158 C 
HETATM    7  N   UNL     1       2.883  -1.606  -0.287  1.00  0.00    -0.327 N 
HETATM    8  C   UNL     1       3.843  -2.343   0.383  1.00  0.00     0.318 C 
HETATM    9  O   UNL     1       4.471  -3.264  -0.129  1.00  0.00    -0.247 OA
HETATM   10  N   UNL     1       4.014  -1.989   1.697  1.00  0.00    -0.342 N 
HETATM   11  H   UNL     1       3.146  -1.720   2.126  1.00  0.00     0.164 HD
ENDROOT
BRANCH  10  12
HETATM   12  C   UNL     1       4.926  -2.773   2.534  1.00  0.00     0.138 C 
BRANCH  12  13
HETATM   13  C   UNL     1       5.109  -2.212   3.977  1.00  0.00    -0.004 C 
HETATM   14  C   UNL     1       5.626  -0.758   3.873  1.00  0.00     0.021 C 
HETATM   15  C   UNL     1       3.747  -2.167   4.711  1.00  0.00     0.021 C 
BRANCH  13  16
HETATM   16  C   UNL     1       6.057  -3.130   4.779  1.00  0.00    -0.046 A 
HETATM   17  C   UNL     1       7.264  -2.682   5.333  1.00  0.00     0.025 A 
HETATM   18  C   UNL     1       8.047  -3.561   6.075  1.00  0.00     0.088 A 
HETATM   19  N   UNL     1       7.727  -4.849   6.305  1.00  0.00    -0.375 N 
HETATM   20  C   UNL     1       6.571  -5.278   5.766  1.00  0.00     0.088 A 
ATOM     21  HN  UNL     1       8.326  -5.464   6.856  1.00  0.00     0.164 HD
HETATM   22  C   UNL     1       5.724  -4.475   5.013  1.00  0.00     0.025 A 
ENDBRANCH  13  16
ENDBRANCH  12  13
ENDBRANCH  10  12
BRANCH   4  23
HETATM   23  C   UNL     1       3.195   1.474  -3.281  1.00  0.00     0.309 C 
BRANCH  23  24
HETATM   24  C   UNL     1       2.812   1.387  -4.796  1.00  0.00     0.077 C 
HETATM   25  C   UNL     1       1.295   1.420  -5.001  1.00  0.00     0.047 C 
HETATM   26  C   UNL     1       3.458   2.541  -5.573  1.00  0.00     0.047 C 
BRANCH  24  27
HETATM   27  O   UNL     1       3.361   0.202  -5.387  1.00  0.00    -0.389 OA
HETATM   28  H   UNL     1       2.647  -0.454  -5.453  1.00  0.00     0.210 HD
ENDBRANCH  24  27
ENDBRANCH  23  24
ENDBRANCH   4  23
TORSDOF 6
