REMARK  4 active torsions:
REMARK  status: ('A' for Active; 'I' for Inactive)
REMARK    1  A    between atoms: N_2  and  C_4 
REMARK    2  A    between atoms: C_4  and  C_5 
REMARK    3  A    between atoms: C_5  and  N_6 
REMARK       I    between atoms: N_6  and  C_7 
REMARK       I    between atoms: C_7  and  N_9 
REMARK    4  A    between atoms: N_9  and  C_10 
ROOT
HETATM    1  N   UNL     1       2.398  -0.215   3.073  1.00  0.00    -0.340 N 
HETATM    2  C   UNL     1       1.846  -0.257   4.348  1.00  0.00     0.321 C 
HETATM    3  O   UNL     1       1.286   0.715   4.832  1.00  0.00    -0.247 OA
HETATM    4  N   UNL     1       2.075  -1.464   4.971  1.00  0.00    -0.293 N 
HETATM    5  H   UNL     1       2.304  -1.050   2.511  1.00  0.00     0.164 HD
HETATM    6  H   UNL     1       2.821  -2.034   4.612  1.00  0.00     0.172 HD
ENDROOT
BRANCH   1   7
HETATM    7  C   UNL     1       2.274   1.044   2.343  1.00  0.00     0.166 C 
BRANCH   7   8
HETATM    8  C   UNL     1       2.903   1.062   0.890  1.00  0.00     0.174 C 
HETATM    9  C   UNL     1       2.771   2.537   0.400  1.00  0.00     0.043 C 
HETATM   10  C   UNL     1       3.642   2.928  -0.788  1.00  0.00     0.003 C 
HETATM   11  C   UNL     1       5.112   2.588  -0.586  1.00  0.00     0.000 C 
HETATM   12  C   UNL     1       5.376   1.192  -0.038  1.00  0.00     0.003 C 
HETATM   13  C   UNL     1       4.426   0.765   1.082  1.00  0.00     0.043 C 
BRANCH   8  14
HETATM   14  N   UNL     1       2.207   0.023   0.047  1.00  0.00     0.091 N 
HETATM   15  C   UNL     1       0.747   0.200  -0.044  1.00  0.00     0.310 C 
HETATM   16  C   UNL     1       2.695  -0.191  -1.314  1.00  0.00     0.310 C 
ENDBRANCH   8  14
ENDBRANCH   7   8
ENDBRANCH   1   7
BRANCH   4  17
HETATM   17  C   UNL     1       1.591  -1.759   6.240  1.00  0.00     0.132 A 
HETATM   18  C   UNL     1       2.067  -2.819   7.058  1.00  0.00     0.084 A 
HETATM   19  C   UNL     1       1.333  -2.725   8.215  1.00  0.00     0.076 A 
HETATM   20  C   UNL     1       1.304  -3.453   9.497  1.00  0.00     0.079 C 
HETATM   21  O   UNL     1       0.452  -1.703   8.094  1.00  0.00    -0.241 OA
HETATM   22  N   UNL     1       0.608  -1.105   6.865  1.00  0.00    -0.245 N 
ATOM     23  HN  UNL     1       0.076  -0.315   6.501  1.00  0.00     0.196 HD
ENDBRANCH   4  17
TORSDOF 4
