REMARK  4 active torsions:
REMARK  status: ('A' for Active; 'I' for Inactive)
REMARK    1  A    between atoms: C_2  and  C_5 
REMARK    2  A    between atoms: C_10  and  N_11 
REMARK       I    between atoms: N_11  and  C_12 
REMARK       I    between atoms: C_12  and  N_14 
REMARK    3  A    between atoms: N_14  and  C_15 
REMARK    4  A    between atoms: C_15  and  C_16 
ROOT
HETATM    1  N   UNL     1       5.173   1.199   3.941  1.00  0.00    -0.304 N 
HETATM    2  C   UNL     1       5.587  -0.093   4.120  1.00  0.00     0.320 C 
HETATM    3  O   UNL     1       5.231  -0.975   3.345  1.00  0.00    -0.247 OA
HETATM    4  N   UNL     1       6.509  -0.280   5.123  1.00  0.00    -0.342 N 
HETATM    5  H   UNL     1       4.929   1.393   2.973  1.00  0.00     0.171 HD
HETATM    6  H   UNL     1       7.057   0.547   5.296  1.00  0.00     0.164 HD
ENDROOT
BRANCH   1   7
HETATM    7  C   UNL     1       5.347   2.291   4.756  1.00  0.00     0.105 A 
HETATM    8  C   UNL     1       5.729   3.582   4.085  1.00  0.00     0.272 A 
HETATM    9  N   UNL     1       6.000   4.632   4.929  1.00  0.00    -0.331 N 
HETATM   10  O   UNL     1       5.845   3.664   2.867  1.00  0.00    -0.266 OA
HETATM   11  C   UNL     1       5.821   4.593   6.289  1.00  0.00     0.107 A 
HETATM   12  H   UNL     1       6.306   5.487   4.476  1.00  0.00     0.168 HD
HETATM   13  C   UNL     1       5.400   3.470   6.900  1.00  0.00     0.065 A 
HETATM   14  C   UNL     1       5.198   2.275   6.092  1.00  0.00     0.052 A 
BRANCH  13  15
HETATM   15  C   UNL     1       5.118   3.423   8.376  1.00  0.00     0.418 C 
HETATM   16  F   UNL     1       4.627   2.227   8.787  1.00  0.00    -0.166 F 
HETATM   17  F   UNL     1       4.209   4.365   8.739  1.00  0.00    -0.166 F 
HETATM   18  F   UNL     1       6.239   3.659   9.104  1.00  0.00    -0.166 F 
ENDBRANCH  13  15
ENDBRANCH   1   7
BRANCH   4  19
HETATM   19  C   UNL     1       7.238  -1.533   5.170  1.00  0.00     0.131 C 
BRANCH  19  20
HETATM   20  C   UNL     1       8.285  -1.582   6.297  1.00  0.00     0.027 C 
HETATM   21  C   UNL     1       9.425  -0.558   6.119  1.00  0.00     0.010 C 
HETATM   22  C   UNL     1      10.335  -0.916   4.948  1.00  0.00     0.027 C 
HETATM   23  C   UNL     1      10.784  -2.370   5.034  1.00  0.00     0.167 C 
HETATM   24  O   UNL     1       9.669  -3.247   5.173  1.00  0.00    -0.391 OA
HETATM   25  C   UNL     1       8.904  -2.983   6.350  1.00  0.00     0.173 C 
ENDBRANCH  19  20
ENDBRANCH   4  19
TORSDOF 4
