REMARK  5 active torsions:
REMARK  status: ('A' for Active; 'I' for Inactive)
REMARK    1  A    between atoms: O_2  and  C_3 
REMARK    2  A    between atoms: C_3  and  C_4 
REMARK    3  A    between atoms: C_4  and  N_5 
REMARK    4  A    between atoms: C_8  and  C_13 
REMARK       I    between atoms: C_13  and  N_15 
REMARK    5  A    between atoms: N_15  and  C_16 
ROOT
HETATM    1  C   UNL     1       6.667  -2.780   4.856  1.00  0.00     0.269 C 
HETATM    2  O   UNL     1       6.615  -3.538   5.813  1.00  0.00    -0.266 OA
HETATM    3  N   UNL     1       7.671  -1.874   4.604  1.00  0.00    -0.351 N 
HETATM    4  H   UNL     1       7.504  -1.229   3.838  1.00  0.00     0.163 HD
ENDROOT
BRANCH   1   5
HETATM    5  C   UNL     1       5.572  -2.836   3.780  1.00  0.00     0.116 A 
HETATM    6  N   UNL     1       5.564  -1.948   2.833  1.00  0.00    -0.290 N 
HETATM    7  N   UNL     1       4.563  -2.065   1.872  1.00  0.00    -0.255 N 
ATOM      8  HN  UNL     1       6.257  -1.201   2.795  1.00  0.00     0.187 HD
HETATM    9  C   UNL     1       3.547  -3.017   1.918  1.00  0.00     0.262 A 
HETATM   10  C   UNL     1       3.637  -4.014   3.001  1.00  0.00     0.078 A 
HETATM   11  O   UNL     1       2.607  -3.079   1.132  1.00  0.00    -0.267 OA
HETATM   12  C   UNL     1       4.611  -3.948   3.909  1.00  0.00     0.042 A 
BRANCH   7  13
HETATM   13  C   UNL     1       4.532  -1.057   0.821  1.00  0.00     0.178 C 
BRANCH  13  14
HETATM   14  C   UNL     1       3.671   0.145   1.209  1.00  0.00     0.189 C 
BRANCH  14  15
HETATM   15  O   UNL     1       3.654   1.091   0.137  1.00  0.00    -0.394 OA
HETATM   16  C   UNL     1       2.864   2.227   0.463  1.00  0.00     0.201 C 
ENDBRANCH  14  15
ENDBRANCH  13  14
ENDBRANCH   7  13
ENDBRANCH   1   5
BRANCH   3  17
HETATM   17  C   UNL     1       8.885  -1.787   5.400  1.00  0.00     0.086 C 
HETATM   18  C   UNL     1       9.811  -0.643   4.947  1.00  0.00     0.034 C 
HETATM   19  C   UNL     1      10.653  -0.917   3.673  1.00  0.00    -0.045 C 
HETATM   20  C   UNL     1       9.825  -0.715   2.391  1.00  0.00     0.015 C 
HETATM   21  C   UNL     1      11.791   0.133   3.600  1.00  0.00     0.015 C 
HETATM   22  C   UNL     1      11.316  -2.319   3.735  1.00  0.00     0.017 C 
HETATM   23  C   UNL     1      10.422  -3.499   4.181  1.00  0.00    -0.045 C 
HETATM   24  C   UNL     1       9.478  -3.970   3.061  1.00  0.00     0.015 C 
HETATM   25  C   UNL     1      11.327  -4.713   4.504  1.00  0.00     0.015 C 
HETATM   26  C   UNL     1       9.670  -3.110   5.472  1.00  0.00     0.034 C 
ENDBRANCH   3  17
TORSDOF 5
