REMARK  4 active torsions:
REMARK  status: ('A' for Active; 'I' for Inactive)
REMARK    1  A    between atoms: O_2  and  C_3 
REMARK    2  A    between atoms: C_9  and  N_10 
REMARK       I    between atoms: N_10  and  C_11 
REMARK       I    between atoms: C_11  and  N_13 
REMARK    3  A    between atoms: N_13  and  C_14 
REMARK    4  A    between atoms: C_14  and  C_15 
ROOT
HETATM    1  N   UNL     1       4.077  -1.364  -1.484  1.00  0.00    -0.305 N 
HETATM    2  C   UNL     1       3.251  -2.243  -0.818  1.00  0.00     0.320 C 
HETATM    3  O   UNL     1       2.310  -1.934  -0.096  1.00  0.00    -0.247 OA
HETATM    4  N   UNL     1       3.579  -3.579  -1.000  1.00  0.00    -0.342 N 
HETATM    5  H   UNL     1       4.716  -1.718  -2.184  1.00  0.00     0.171 HD
HETATM    6  H   UNL     1       3.996  -3.821  -1.888  1.00  0.00     0.164 HD
ENDROOT
BRANCH   1   7
HETATM    7  C   UNL     1       4.022   0.055  -1.358  1.00  0.00     0.087 A 
HETATM    8  C   UNL     1       4.737   0.893  -2.228  1.00  0.00     0.169 A 
HETATM    9  N   UNL     1       4.726   2.250  -2.154  1.00  0.00    -0.345 N 
HETATM   10  C   UNL     1       3.988   2.811  -1.177  1.00  0.00     0.090 A 
ATOM     11  HN  UNL     1       5.256   2.821  -2.812  1.00  0.00     0.167 HD
HETATM   12  C   UNL     1       3.262   2.080  -0.261  1.00  0.00     0.019 A 
HETATM   13  C   UNL     1       3.288   0.692  -0.355  1.00  0.00     0.035 A 
BRANCH   8  14
HETATM   14  O   UNL     1       5.477   0.306  -3.243  1.00  0.00    -0.339 OA
HETATM   15  C   UNL     1       6.277   1.266  -3.943  1.00  0.00     0.211 C 
ENDBRANCH   8  14
ENDBRANCH   1   7
BRANCH   4  16
HETATM   16  C   UNL     1       2.686  -4.535  -0.363  1.00  0.00     0.130 C 
BRANCH  16  17
HETATM   17  C   UNL     1       3.096  -5.994  -0.503  1.00  0.00     0.018 C 
HETATM   18  C   UNL     1       2.079  -6.919   0.201  1.00  0.00     0.022 C 
HETATM   19  C   UNL     1       2.727  -8.277   0.473  1.00  0.00     0.141 C 
HETATM   20  S   UNL     1       4.479  -8.069   0.232  1.00  0.00     0.144 S 
HETATM   21  O   UNL     1       5.183  -8.466   1.433  1.00  0.00    -0.228 OA
HETATM   22  O   UNL     1       4.826  -8.582  -1.077  1.00  0.00    -0.228 OA
HETATM   23  C   UNL     1       4.445  -6.295   0.140  1.00  0.00     0.146 C 
ENDBRANCH  16  17
ENDBRANCH   4  16
TORSDOF 4
