REMARK  3 active torsions:
REMARK  status: ('A' for Active; 'I' for Inactive)
REMARK    1  A    between atoms: C_5  and  N_8 
REMARK    2  A    between atoms: C_11  and  N_14 
REMARK       I    between atoms: N_14  and  C_15 
REMARK       I    between atoms: C_15  and  N_17 
REMARK    3  A    between atoms: N_17  and  C_18 
ROOT
HETATM    1  N   UNL     1       6.792  -0.800  -5.869  1.00  0.00    -0.338 N 
HETATM    2  C   UNL     1       7.385  -0.063  -6.872  1.00  0.00     0.321 C 
HETATM    3  O   UNL     1       6.767   0.700  -7.603  1.00  0.00    -0.247 OA
HETATM    4  N   UNL     1       8.721  -0.367  -6.972  1.00  0.00    -0.308 N 
HETATM    5  H   UNL     1       7.369  -0.904  -5.043  1.00  0.00     0.164 HD
HETATM    6  H   UNL     1       8.941  -1.319  -6.718  1.00  0.00     0.170 HD
ENDROOT
BRANCH   1   7
HETATM    7  C   UNL     1       5.346  -0.761  -5.681  1.00  0.00     0.089 C 
HETATM    8  C   UNL     1       4.889   0.525  -4.983  1.00  0.00     0.055 C 
HETATM    9  C   UNL     1       5.177   0.482  -3.482  1.00  0.00     0.275 C 
HETATM   10  N   UNL     1       4.598  -0.694  -2.806  1.00  0.00     0.093 N 
HETATM   11  C   UNL     1       5.156  -1.907  -3.428  1.00  0.00     0.275 C 
HETATM   12  C   UNL     1       4.875  -2.008  -4.929  1.00  0.00     0.055 C 
BRANCH  10  13
HETATM   13  C   UNL     1       3.110  -0.676  -2.725  1.00  0.00     0.226 C 
HETATM   14  C   UNL     1       2.560   0.557  -1.968  1.00  0.00     0.066 C 
HETATM   15  C   UNL     1       2.882   0.504  -0.473  1.00  0.00     0.274 C 
HETATM   16  N   UNL     1       2.394  -0.713   0.196  1.00  0.00     0.084 N 
HETATM   17  C   UNL     1       0.945  -0.703   0.381  1.00  0.00     0.309 C 
HETATM   18  C   UNL     1       2.855  -1.916  -0.515  1.00  0.00     0.274 C 
HETATM   19  C   UNL     1       2.516  -1.911  -2.008  1.00  0.00     0.066 C 
ENDBRANCH  10  13
ENDBRANCH   1   7
BRANCH   4  20
HETATM   20  C   UNL     1       9.570   0.260  -7.903  1.00  0.00     0.051 A 
HETATM   21  C   UNL     1      10.526  -0.506  -8.562  1.00  0.00     0.033 A 
HETATM   22  C   UNL     1      11.390   0.107  -9.465  1.00  0.00     0.027 A 
HETATM   23  C   UNL     1      11.309   1.485  -9.649  1.00  0.00     0.005 A 
HETATM   24  C   UNL     1      12.302   2.200 -10.511  1.00  0.00     0.068 C 
HETATM   25  N   UNL     1      10.387   2.250  -9.018  1.00  0.00    -0.367 N 
HETATM   26  C   UNL     1       9.525   1.622  -8.181  1.00  0.00     0.117 A 
ATOM     27  HN  UNL     1      10.343   3.258  -9.166  1.00  0.00     0.165 HD
ENDBRANCH   4  20
TORSDOF 3
