REMARK  3 active torsions:
REMARK  status: ('A' for Active; 'I' for Inactive)
REMARK    1  A    between atoms: C_10  and  N_11 
REMARK    2  A    between atoms: N_11  and  C_12 
REMARK    3  A    between atoms: C_12  and  C_13 
ROOT
HETATM    1  N   UNL     1       2.206  -0.773   2.723  1.00  0.00    -0.190 NA
HETATM    2  C   UNL     1       3.070  -0.565   1.968  1.00  0.00     0.121 C 
HETATM    3  C   UNL     1       4.113  -0.281   1.018  1.00  0.00     0.152 A 
HETATM    4  N   UNL     1       4.713   0.925   1.251  1.00  0.00    -0.353 N 
ATOM      5  HN  UNL     1       4.397   1.554   1.989  1.00  0.00     0.166 HD
HETATM    6  C   UNL     1       5.746   1.230   0.447  1.00  0.00     0.106 A 
HETATM    7  C   UNL     1       6.166   0.378  -0.555  1.00  0.00     0.106 A 
HETATM    8  N   UNL     1       5.550  -0.803  -0.825  1.00  0.00    -0.353 N 
ATOM      9  HN  UNL     1       5.865  -1.406  -1.585  1.00  0.00     0.166 HD
HETATM   10  C   UNL     1       4.498  -1.145  -0.039  1.00  0.00     0.118 A 
ENDROOT
BRANCH  10  11
HETATM   11  N   UNL     1       3.899  -2.378  -0.387  1.00  0.00    -0.274 NA
HETATM   12  H   UNL     1       4.334  -2.660  -1.269  1.00  0.00     0.129 HD
BRANCH  11  13
HETATM   13  C   UNL     1       2.443  -2.275  -0.490  1.00  0.00     0.127 C 
BRANCH  13  14
HETATM   14  C   UNL     1       1.660  -3.496  -1.037  1.00  0.00     0.163 C 
HETATM   15  C   UNL     1       0.162  -3.192  -0.776  1.00  0.00     0.306 C 
HETATM   16  N   UNL     1      -0.104  -1.918  -1.454  1.00  0.00     0.097 N 
HETATM   17  C   UNL     1      -1.254  -1.177  -0.971  1.00  0.00     0.273 C 
HETATM   18  C   UNL     1       0.002  -2.092  -2.910  1.00  0.00     0.246 C 
HETATM   19  C   UNL     1      -1.273   0.204  -1.626  1.00  0.00     0.030 C 
HETATM   20  C   UNL     1      -1.304   0.082  -3.145  1.00  0.00     0.004 C 
HETATM   21  C   UNL     1      -0.118  -0.740  -3.634  1.00  0.00     0.038 C 
HETATM   22  C   UNL     1       1.368  -2.739  -3.303  1.00  0.00     0.204 C 
HETATM   23  O   UNL     1       1.838  -3.781  -2.435  1.00  0.00    -0.381 OA
ENDBRANCH  13  14
ENDBRANCH  11  13
ENDBRANCH  10  11
TORSDOF 3
