REMARK  5 active torsions:
REMARK  status: ('A' for Active; 'I' for Inactive)
REMARK       I    between atoms: C_2  and  N_3 
REMARK       I    between atoms: C_2  and  N_18 
REMARK    1  A    between atoms: N_3  and  C_4 
REMARK    2  A    between atoms: C_4  and  C_5 
REMARK    3  A    between atoms: C_5  and  N_6 
REMARK       I    between atoms: N_9  and  C_12 
REMARK    4  A    between atoms: C_12  and  C_14 
REMARK    5  A    between atoms: N_18  and  C_19 
ROOT
HETATM    1  C   UNL     1       3.384  -1.673   3.031  1.00  0.00     0.154 C 
ENDROOT
BRANCH   1   2
HETATM    2  N   UNL     1       4.217  -0.698   2.370  1.00  0.00    -0.341 N 
HETATM    3  C   UNL     1       3.797   0.030   1.305  1.00  0.00     0.321 C 
HETATM    4  O   UNL     1       2.781  -0.228   0.663  1.00  0.00    -0.247 OA
HETATM    5  N   UNL     1       4.510   1.148   1.001  1.00  0.00    -0.295 N 
HETATM    6  H   UNL     1       4.070   1.711   0.289  1.00  0.00     0.172 HD
HETATM    7  H   UNL     1       5.109  -0.423   2.778  1.00  0.00     0.164 HD
BRANCH   5   8
HETATM    8  C   UNL     1       5.608   1.678   1.686  1.00  0.00     0.108 A 
HETATM    9  C   UNL     1       5.913   3.016   1.471  1.00  0.00     0.049 A 
HETATM   10  C   UNL     1       6.948   3.592   2.205  1.00  0.00     0.005 A 
HETATM   11  C   UNL     1       7.674   2.808   3.094  1.00  0.00     0.017 A 
HETATM   12  C   UNL     1       7.326   1.477   3.221  1.00  0.00     0.089 A 
HETATM   13  N   UNL     1       6.303   0.904   2.551  1.00  0.00    -0.352 N 
ATOM     14  HN  UNL     1       6.063  -0.077   2.692  1.00  0.00     0.166 HD
ENDBRANCH   5   8
ENDBRANCH   1   2
BRANCH   1  15
HETATM   15  C   UNL     1       3.234  -2.956   2.206  1.00  0.00     0.292 C 
BRANCH  15  16
HETATM   16  N   UNL     1       2.386  -3.996   2.818  1.00  0.00     0.093 N 
HETATM   17  C   UNL     1       2.366  -5.195   1.952  1.00  0.00     0.292 C 
HETATM   18  C   UNL     1       1.593  -5.014   0.629  1.00  0.00     0.156 C 
HETATM   19  N   UNL     1       0.224  -4.546   0.864  1.00  0.00    -0.348 N 
HETATM   20  C   UNL     1       0.112  -3.408   1.786  1.00  0.00     0.156 C 
HETATM   21  C   UNL     1      -0.854  -4.819   0.023  1.00  0.00     0.224 C 
HETATM   22  C   UNL     1       0.986  -3.567   3.045  1.00  0.00     0.292 C 
HETATM   23  O   UNL     1      -1.965  -4.302   0.235  1.00  0.00    -0.273 OA
BRANCH  21  24
HETATM   24  C   UNL     1      -0.608  -5.759  -1.193  1.00  0.00     0.078 C 
HETATM   25  C   UNL     1      -0.206  -5.054  -2.518  1.00  0.00     0.014 C 
HETATM   26  C   UNL     1      -1.020  -6.125  -3.264  1.00  0.00     0.002 C 
HETATM   27  C   UNL     1      -1.839  -6.303  -1.970  1.00  0.00     0.014 C 
ENDBRANCH  21  24
ENDBRANCH  15  16
ENDBRANCH   1  15
TORSDOF 5
