REMARK  4 active torsions:
REMARK  status: ('A' for Active; 'I' for Inactive)
REMARK    1  A    between atoms: C_2  and  C_3 
REMARK    2  A    between atoms: C_2  and  N_14 
REMARK    3  A    between atoms: C_3  and  N_4 
REMARK       I    between atoms: N_4  and  C_5 
REMARK       I    between atoms: C_5  and  N_7 
REMARK    4  A    between atoms: N_7  and  C_8 
ROOT
HETATM    1  N   UNL     1       2.489   1.383   2.290  1.00  0.00    -0.341 N 
HETATM    2  C   UNL     1       3.490   2.332   2.226  1.00  0.00     0.320 C 
HETATM    3  O   UNL     1       4.522   2.145   1.589  1.00  0.00    -0.247 OA
HETATM    4  N   UNL     1       3.180   3.466   2.937  1.00  0.00    -0.306 N 
HETATM    5  H   UNL     1       1.948   1.379   3.142  1.00  0.00     0.164 HD
HETATM    6  H   UNL     1       2.212   3.647   3.153  1.00  0.00     0.171 HD
ENDROOT
BRANCH   1   7
HETATM    7  C   UNL     1       2.726   0.082   1.671  1.00  0.00     0.159 C 
BRANCH   7   8
HETATM    8  C   UNL     1       2.472   0.062   0.127  1.00  0.00     0.236 C 
HETATM    9  C   UNL     1       0.947   0.221  -0.058  1.00  0.00     0.044 C 
BRANCH   8  10
HETATM   10  N   UNL     1       2.969  -1.191  -0.514  1.00  0.00     0.098 N 
HETATM   11  C   UNL     1       4.444  -1.367  -0.391  1.00  0.00     0.299 C 
HETATM   12  C   UNL     1       5.269  -0.428  -1.287  1.00  0.00     0.198 C 
HETATM   13  O   UNL     1       4.929  -0.618  -2.667  1.00  0.00    -0.388 OA
HETATM   14  C   UNL     1       3.530  -0.393  -2.873  1.00  0.00     0.198 C 
HETATM   15  C   UNL     1       2.671  -1.297  -1.968  1.00  0.00     0.299 C 
ENDBRANCH   8  10
ENDBRANCH   7   8
ENDBRANCH   1   7
BRANCH   4  16
HETATM   16  C   UNL     1       4.085   4.496   3.122  1.00  0.00     0.070 A 
HETATM   17  C   UNL     1       5.485   4.537   2.932  1.00  0.00     0.138 A 
HETATM   18  N   UNL     1       6.005   5.735   3.216  1.00  0.00    -0.310 N 
HETATM   19  N   UNL     1       4.936   6.463   3.570  1.00  0.00    -0.310 N 
ATOM     20  HN  UNL     1       6.982   6.026   3.174  1.00  0.00     0.186 HD
HETATM   21  C   UNL     1       3.765   5.758   3.565  1.00  0.00     0.138 A 
HETATM   22  H   UNL     1       5.082   7.440   3.801  1.00  0.00     0.186 HD
ENDBRANCH   4  16
TORSDOF 4
