REMARK  3 active torsions:
REMARK  status: ('A' for Active; 'I' for Inactive)
REMARK    1  A    between atoms: C_2  and  N_3 
REMARK    2  A    between atoms: C_2  and  C_16 
REMARK       I    between atoms: N_3  and  C_4 
REMARK       I    between atoms: C_4  and  N_6 
REMARK    3  A    between atoms: N_6  and  C_7 
ROOT
HETATM    1  N   UNL     1       3.100   1.060   0.870  1.00  0.00    -0.336 N 
HETATM    2  C   UNL     1       2.753   2.353   0.555  1.00  0.00     0.321 C 
HETATM    3  O   UNL     1       2.200   2.613  -0.511  1.00  0.00    -0.247 OA
HETATM    4  N   UNL     1       3.146   3.281   1.498  1.00  0.00    -0.307 N 
HETATM    5  H   UNL     1       3.153   0.806   1.847  1.00  0.00     0.164 HD
HETATM    6  H   UNL     1       3.832   2.952   2.159  1.00  0.00     0.170 HD
ENDROOT
BRANCH   1   7
HETATM    7  C   UNL     1       2.715  -0.017  -0.060  1.00  0.00     0.111 C 
HETATM    8  C   UNL     1       1.268  -0.444   0.204  1.00  0.00     0.035 C 
BRANCH   7   9
HETATM    9  C   UNL     1       3.723  -1.180  -0.020  1.00  0.00     0.143 C 
HETATM   10  C   UNL     1       3.547  -2.199  -1.142  1.00  0.00     0.036 C 
HETATM   11  C   UNL     1       3.904  -3.529  -0.513  1.00  0.00     0.029 C 
HETATM   12  C   UNL     1       4.247  -3.199   0.924  1.00  0.00     0.168 C 
HETATM   13  O   UNL     1       3.634  -1.934   1.201  1.00  0.00    -0.384 OA
ENDBRANCH   7   9
ENDBRANCH   1   7
BRANCH   4  14
HETATM   14  C   UNL     1       2.941   4.651   1.395  1.00  0.00     0.058 A 
HETATM   15  C   UNL     1       1.985   5.183   0.607  1.00  0.00     0.123 A 
HETATM   16  N   UNL     1       1.823   6.543   0.423  1.00  0.00    -0.327 N 
HETATM   17  C   UNL     1       0.867   7.020  -0.560  1.00  0.00     0.159 C 
HETATM   18  C   UNL     1       2.637   7.472   1.050  1.00  0.00     0.247 A 
HETATM   19  O   UNL     1       2.577   8.686   0.886  1.00  0.00    -0.268 OA
HETATM   20  C   UNL     1       3.655   6.907   1.973  1.00  0.00     0.083 A 
HETATM   21  C   UNL     1       3.803   5.578   2.141  1.00  0.00    -0.029 A 
HETATM   22  C   UNL     1       4.885   5.065   3.047  1.00  0.00     0.050 C 
ENDBRANCH   4  14
TORSDOF 3
