REMARK  4 active torsions:
REMARK  status: ('A' for Active; 'I' for Inactive)
REMARK    1  A    between atoms: N_11  and  C_12 
REMARK    2  A    between atoms: C_12  and  C_13 
REMARK    3  A    between atoms: C_13  and  O_14 
REMARK    4  A    between atoms: C_13  and  C_15 
ROOT
HETATM    1  C   UNL     1       1.026   0.071   0.079  1.00  0.00     0.164 C 
HETATM    2  N   UNL     1       2.474  -0.008   0.095  1.00  0.00    -0.269 N 
HETATM    3  C   UNL     1       3.075  -1.283   0.100  1.00  0.00     0.332 A 
HETATM    4  O   UNL     1       2.397  -2.313   0.086  1.00  0.00    -0.246 OA
HETATM    5  N   UNL     1       4.472  -1.327   0.123  1.00  0.00    -0.287 N 
HETATM    6  C   UNL     1       5.171  -2.600   0.123  1.00  0.00     0.163 C 
HETATM    7  C   UNL     1       5.184  -0.153   0.135  1.00  0.00     0.145 A 
HETATM    8  N   UNL     1       6.541  -0.033   0.165  1.00  0.00    -0.336 N 
ATOM      9  HN  UNL     1       7.234  -0.781   0.187  1.00  0.00     0.168 HD
HETATM   10  C   UNL     1       6.758   1.267   0.160  1.00  0.00     0.185 A 
HETATM   11  N   UNL     1       5.585   1.974   0.119  1.00  0.00    -0.333 N 
HETATM   12  C   UNL     1       4.568   1.060   0.117  1.00  0.00     0.149 A 
HETATM   13  C   UNL     1       3.156   1.214   0.085  1.00  0.00     0.282 A 
HETATM   14  O   UNL     1       2.603   2.313   0.052  1.00  0.00    -0.265 OA
ENDROOT
BRANCH  11  15
HETATM   15  C   UNL     1       5.457   3.416   0.136  1.00  0.00     0.167 C 
BRANCH  15  16
HETATM   16  C   UNL     1       5.337   4.029  -1.271  1.00  0.00     0.169 C 
BRANCH  16  17
HETATM   17  O   UNL     1       4.233   3.512  -2.010  1.00  0.00    -0.389 OA
HETATM   18  H   UNL     1       3.423   3.626  -1.477  1.00  0.00     0.210 HD
ENDBRANCH  16  17
BRANCH  16  19
HETATM   19  C   UNL     1       5.198   5.537  -1.209  1.00  0.00    -0.028 A 
HETATM   20  C   UNL     1       6.138   6.360  -1.848  1.00  0.00     0.011 A 
HETATM   21  C   UNL     1       6.033   7.751  -1.771  1.00  0.00     0.024 A 
HETATM   22  C   UNL     1       4.984   8.330  -1.061  1.00  0.00     0.034 A 
HETATM   23 CL   UNL     1       4.866  10.043  -0.951  1.00  0.00    -0.084 Cl
HETATM   24  C   UNL     1       4.031   7.531  -0.438  1.00  0.00     0.024 A 
HETATM   25  C   UNL     1       4.135   6.141  -0.516  1.00  0.00     0.011 A 
ENDBRANCH  16  19
ENDBRANCH  15  16
ENDBRANCH  11  15
TORSDOF 4
