REMARK  3 active torsions:
REMARK  status: ('A' for Active; 'I' for Inactive)
REMARK    1  A    between atoms: S_2  and  N_5 
REMARK    2  A    between atoms: C_8  and  N_11 
REMARK       I    between atoms: N_11  and  C_12 
REMARK       I    between atoms: C_12  and  N_14 
REMARK    3  A    between atoms: N_14  and  C_15 
ROOT
HETATM    1  N   UNL     1       6.235  -2.401   2.658  1.00  0.00    -0.338 N 
HETATM    2  C   UNL     1       7.606  -2.421   2.812  1.00  0.00     0.322 C 
HETATM    3  O   UNL     1       8.372  -2.191   1.883  1.00  0.00    -0.247 OA
HETATM    4  N   UNL     1       7.976  -2.764   4.088  1.00  0.00    -0.295 N 
HETATM    5  H   UNL     1       5.710  -2.144   3.482  1.00  0.00     0.164 HD
HETATM    6  H   UNL     1       7.389  -3.456   4.529  1.00  0.00     0.172 HD
ENDROOT
BRANCH   1   7
HETATM    7  C   UNL     1       5.677  -2.119   1.336  1.00  0.00     0.089 C 
HETATM    8  C   UNL     1       5.798  -0.636   0.969  1.00  0.00     0.045 C 
HETATM    9  C   UNL     1       4.729   0.208   1.642  1.00  0.00     0.137 C 
HETATM   10  N   UNL     1       3.366  -0.313   1.379  1.00  0.00    -0.311 N 
HETATM   11  C   UNL     1       3.216  -1.717   1.847  1.00  0.00     0.137 C 
HETATM   12  C   UNL     1       4.243  -2.637   1.201  1.00  0.00     0.045 C 
BRANCH  10  13
HETATM   13  S   UNL     1       2.627   0.058  -0.111  1.00  0.00     0.224 S 
HETATM   14  C   UNL     1       2.440   1.826  -0.015  1.00  0.00     0.186 C 
HETATM   15  O   UNL     1       1.300  -0.522  -0.096  1.00  0.00    -0.206 OA
HETATM   16  O   UNL     1       3.557  -0.250  -1.173  1.00  0.00    -0.206 OA
ENDBRANCH  10  13
ENDBRANCH   1   7
BRANCH   4  17
HETATM   17  C   UNL     1       9.327  -2.950   4.408  1.00  0.00     0.108 A 
HETATM   18  C   UNL     1      10.310  -2.067   3.970  1.00  0.00     0.049 A 
HETATM   19  C   UNL     1      11.644  -2.389   4.193  1.00  0.00     0.005 A 
HETATM   20  C   UNL     1      11.950  -3.575   4.842  1.00  0.00     0.017 A 
HETATM   21  C   UNL     1      10.903  -4.365   5.292  1.00  0.00     0.089 A 
HETATM   22  N   UNL     1       9.596  -4.061   5.120  1.00  0.00    -0.352 N 
ATOM     23  HN  UNL     1       8.854  -4.642   5.509  1.00  0.00     0.166 HD
ENDBRANCH   4  17
TORSDOF 3
