REMARK  4 active torsions:
REMARK  status: ('A' for Active; 'I' for Inactive)
REMARK    1  A    between atoms: N_6  and  C_7 
REMARK    2  A    between atoms: C_7  and  C_8 
REMARK       I    between atoms: C_8  and  N_10 
REMARK    3  A    between atoms: N_10  and  C_11 
REMARK    4  A    between atoms: C_11  and  C_15 
ROOT
HETATM    1  C   UNL     1       9.398  -0.593  -0.020  1.00  0.00     0.122 C 
HETATM    2  C   UNL     1       9.533   0.368  -1.212  1.00  0.00     0.055 C 
HETATM    3  C   UNL     1       9.563   0.134   1.270  1.00  0.00     0.091 C 
HETATM    4  N   UNL     1       9.713   0.668   2.292  1.00  0.00    -0.195 NA
ENDROOT
BRANCH   1   5
HETATM    5  N   UNL     1       8.123  -1.323  -0.059  1.00  0.00    -0.338 N 
HETATM    6  C   UNL     1       6.910  -0.659  -0.001  1.00  0.00     0.237 C 
HETATM    7  O   UNL     1       6.828   0.566   0.034  1.00  0.00    -0.272 OA
HETATM    8  H   UNL     1       8.139  -2.332  -0.057  1.00  0.00     0.164 HD
BRANCH   6   9
HETATM    9  C   UNL     1       5.670  -1.526  -0.001  1.00  0.00     0.232 C 
BRANCH   9  10
HETATM   10  N   UNL     1       5.071  -1.732  -1.312  1.00  0.00    -0.336 N 
HETATM   11  C   UNL     1       5.565  -1.323  -2.516  1.00  0.00     0.183 A 
HETATM   12  N   UNL     1       4.800  -1.706  -3.512  1.00  0.00    -0.354 N 
HETATM   13  C   UNL     1       3.740  -2.357  -2.934  1.00  0.00     0.028 A 
ATOM     14  HN  UNL     1       4.960  -1.552  -4.507  1.00  0.00     0.166 HD
HETATM   15  C   UNL     1       2.642  -2.897  -3.767  1.00  0.00     0.070 C 
HETATM   16  C   UNL     1       3.882  -2.394  -1.556  1.00  0.00     0.031 A 
HETATM   17  C   UNL     1       2.993  -2.979  -0.524  1.00  0.00     0.070 C 
ENDBRANCH   9  10
ENDBRANCH   6   9
ENDBRANCH   1   5
BRANCH   1  18
HETATM   18  C   UNL     1      10.615  -1.523  -0.019  1.00  0.00     0.028 A 
HETATM   19  C   UNL     1      10.831  -2.530  -1.129  1.00  0.00     0.009 A 
HETATM   20  C   UNL     1      10.621  -3.011   0.279  1.00  0.00     0.009 A 
ENDBRANCH   1  18
TORSDOF 4
