REMARK  5 active torsions:
REMARK  status: ('A' for Active; 'I' for Inactive)
REMARK    1  A    between atoms: O_2  and  C_3 
REMARK    2  A    between atoms: C_3  and  C_4 
REMARK    3  A    between atoms: C_4  and  N_5 
REMARK    4  A    between atoms: C_8  and  C_13 
REMARK       I    between atoms: C_13  and  N_15 
REMARK    5  A    between atoms: N_15  and  C_16 
ROOT
HETATM    1  N   UNL     1       5.419   1.926  -1.972  1.00  0.00    -0.255 N 
HETATM    2  N   UNL     1       5.457   3.277  -1.646  1.00  0.00    -0.290 N 
ATOM      3  HN  UNL     1       5.889   3.607  -0.783  1.00  0.00     0.187 HD
HETATM    4  C   UNL     1       4.915   4.099  -2.496  1.00  0.00     0.116 A 
HETATM    5  C   UNL     1       4.247   3.705  -3.750  1.00  0.00     0.042 A 
HETATM    6  C   UNL     1       4.234   2.406  -4.045  1.00  0.00     0.078 A 
HETATM    7  C   UNL     1       4.845   1.418  -3.136  1.00  0.00     0.262 A 
HETATM    8  O   UNL     1       4.806   0.230  -3.444  1.00  0.00    -0.267 OA
ENDROOT
BRANCH   4   9
HETATM    9  C   UNL     1       4.933   5.601  -2.209  1.00  0.00     0.269 C 
HETATM   10  O   UNL     1       4.879   6.392  -3.142  1.00  0.00    -0.266 OA
HETATM   11  N   UNL     1       4.975   5.945  -0.876  1.00  0.00    -0.351 N 
HETATM   12  H   UNL     1       5.172   5.196  -0.218  1.00  0.00     0.163 HD
BRANCH  11  13
HETATM   13  C   UNL     1       5.027   7.340  -0.440  1.00  0.00     0.084 C 
HETATM   14  C   UNL     1       6.486   7.818  -0.367  1.00  0.00     0.025 C 
HETATM   15  C   UNL     1       6.611   9.338  -0.270  1.00  0.00     0.002 C 
HETATM   16  C   UNL     1       6.566   9.901   1.148  1.00  0.00     0.000 C 
HETATM   17  C   UNL     1       5.559   9.272   2.105  1.00  0.00     0.000 C 
HETATM   18  C   UNL     1       4.223   8.894   1.472  1.00  0.00     0.002 C 
HETATM   19  C   UNL     1       4.235   7.490   0.864  1.00  0.00     0.025 C 
ENDBRANCH  11  13
ENDBRANCH   4   9
BRANCH   1  20
HETATM   20  C   UNL     1       5.944   0.990  -0.978  1.00  0.00     0.178 C 
BRANCH  20  21
HETATM   21  C   UNL     1       7.190   0.230  -1.440  1.00  0.00     0.189 C 
BRANCH  21  22
HETATM   22  O   UNL     1       7.604  -0.664  -0.401  1.00  0.00    -0.394 OA
HETATM   23  C   UNL     1       8.714  -1.457  -0.805  1.00  0.00     0.201 C 
ENDBRANCH  21  22
ENDBRANCH  20  21
ENDBRANCH   1  20
TORSDOF 5
