REMARK  4 active torsions:
REMARK  status: ('A' for Active; 'I' for Inactive)
REMARK    1  A    between atoms: C_2  and  C_4 
REMARK    2  A    between atoms: C_4  and  C_5 
REMARK       I    between atoms: C_5  and  N_7 
REMARK    3  A    between atoms: N_7  and  C_8 
REMARK    4  A    between atoms: C_14  and  N_15 
ROOT
HETATM    1  C   UNL     1       6.610  -1.506   2.333  1.00  0.00     0.079 A 
HETATM    2  C   UNL     1       7.409  -0.784   3.218  1.00  0.00     0.035 A 
HETATM    3  C   UNL     1       8.777  -1.012   3.233  1.00  0.00     0.019 A 
HETATM    4  C   UNL     1       9.283  -1.946   2.350  1.00  0.00     0.090 A 
HETATM    5  N   UNL     1       8.534  -2.668   1.484  1.00  0.00    -0.351 N 
ATOM      6  HN  UNL     1       8.966  -3.353   0.864  1.00  0.00     0.166 HD
HETATM    7  C   UNL     1       7.196  -2.457   1.463  1.00  0.00     0.130 A 
ENDROOT
BRANCH   1   8
HETATM    8  N   UNL     1       5.200  -1.350   2.366  1.00  0.00    -0.324 N 
HETATM    9  C   UNL     1       4.603  -0.100   2.317  1.00  0.00     0.222 C 
HETATM   10  O   UNL     1       5.199   0.969   2.398  1.00  0.00    -0.273 OA
HETATM   11  H   UNL     1       4.693  -2.131   1.964  1.00  0.00     0.169 HD
BRANCH   9  12
HETATM   12  C   UNL     1       3.097  -0.172   2.124  1.00  0.00     0.107 C 
BRANCH  12  13
HETATM   13  C   UNL     1       2.550   1.007   1.301  1.00  0.00    -0.014 C 
HETATM   14  C   UNL     1       2.998   0.928  -0.162  1.00  0.00     0.010 C 
HETATM   15  C   UNL     1       1.023   1.031   1.372  1.00  0.00     0.010 C 
ENDBRANCH  12  13
ENDBRANCH   9  12
ENDBRANCH   1   8
BRANCH   7  16
HETATM   16  N   UNL     1       6.405  -3.216   0.597  1.00  0.00    -0.361 N 
HETATM   17  C   UNL     1       6.951  -4.509   0.144  1.00  0.00     0.150 C 
HETATM   18  C   UNL     1       7.345  -4.505  -1.338  1.00  0.00     0.187 C 
HETATM   19  O   UNL     1       6.270  -4.028  -2.161  1.00  0.00    -0.388 OA
HETATM   20  C   UNL     1       5.993  -2.666  -1.825  1.00  0.00     0.187 C 
HETATM   21  C   UNL     1       5.533  -2.520  -0.370  1.00  0.00     0.150 C 
ENDBRANCH   7  16
TORSDOF 4
