REMARK  14 active torsions:
REMARK  status: ('A' for Active; 'I' for Inactive)
REMARK    1  A    between atoms: N_1  and  C_8 
REMARK    2  A    between atoms: C_6  and  N_9 
REMARK    3  A    between atoms: N_9  and  C_22 
REMARK    4  A    between atoms: N_9  and  C_24 
REMARK    5  A    between atoms: C_14  and  C_25 
REMARK    6  A    between atoms: C_14  and  C_26 
REMARK    7  A    between atoms: N_15  and  C_21 
REMARK    8  A    between atoms: C_21  and  C_23 
REMARK    9  A    between atoms: C_22  and  C_29 
REMARK   10  A    between atoms: C_23  and  C_24 
REMARK   11  A    between atoms: C_25  and  O_27 
REMARK   12  A    between atoms: C_26  and  O_28 
REMARK   13  A    between atoms: C_29  and  C_30 
REMARK   14  A    between atoms: C_29  and  C_31 
ROOT
HETATM    1  N   UNL     1       1.495   1.280  -0.606  1.00  0.00    -0.322 N 
HETATM    2  C   UNL     1       0.308  -0.568  -0.687  1.00  0.00     0.117 A 
HETATM    3  C   UNL     1       0.217   0.807  -0.423  1.00  0.00     0.140 A 
HETATM    4  N   UNL     1       1.583  -0.882  -1.119  1.00  0.00    -0.346 N 
ATOM      5  HN  UNL     1       1.926  -1.796  -1.416  1.00  0.00     0.167 HD
HETATM    6  C   UNL     1      -0.840  -1.393  -0.467  1.00  0.00     0.114 A 
HETATM    7  C   UNL     1       2.258   0.238  -1.067  1.00  0.00     0.185 A 
HETATM    8  N   UNL     1      -0.891   1.474  -0.061  1.00  0.00    -0.336 N 
ATOM      9  HN  UNL     1      -0.930   2.476   0.126  1.00  0.00     0.168 HD
HETATM   10  N   UNL     1      -1.982  -0.712  -0.143  1.00  0.00    -0.341 N 
ATOM     11  HN  UNL     1      -2.860  -1.217  -0.025  1.00  0.00     0.167 HD
HETATM   12  C   UNL     1      -1.946   0.635   0.021  1.00  0.00     0.183 A 
ENDROOT
BRANCH   6  13
HETATM   13  N   UNL     1      -0.874  -2.826  -0.578  1.00  0.00    -0.266 NA
BRANCH  13  14
HETATM   14  C   UNL     1       0.365  -3.455  -0.041  1.00  0.00     0.101 C 
BRANCH  14  15
HETATM   15  C   UNL     1       0.586  -4.930  -0.465  1.00  0.00    -0.002 C 
BRANCH  15  16
HETATM   16  C   UNL     1       0.746  -5.128  -1.991  1.00  0.00     0.001 C 
HETATM   17  C   UNL     1       1.887  -4.372  -2.658  1.00  0.00     0.005 C 
ENDBRANCH  15  16
BRANCH  15  18
HETATM   18  C   UNL     1       1.796  -5.539   0.289  1.00  0.00     0.001 C 
HETATM   19  C   UNL     1       1.548  -5.708   1.785  1.00  0.00     0.005 C 
ENDBRANCH  15  18
ENDBRANCH  14  15
ENDBRANCH  13  14
BRANCH  13  20
HETATM   20  C   UNL     1      -2.157  -3.433  -0.099  1.00  0.00     0.110 C 
BRANCH  20  21
HETATM   21  C   UNL     1      -3.265  -3.332  -1.143  1.00  0.00     0.118 C 
BRANCH  21  22
HETATM   22  C   UNL     1      -4.550  -4.054  -0.771  1.00  0.00    -0.077 C 
BRANCH  22  23
HETATM   23  N   UNL     1      -5.616  -4.653  -0.462  1.00  0.00    -0.370 N 
ATOM     24  HN2 UNL     1      -4.750  -4.168  -0.697  1.00  0.00     0.165 HD
ATOM     25  HN1 UNL     1      -6.478  -5.137  -0.212  1.00  0.00     0.165 HD
ENDBRANCH  22  23
ENDBRANCH  21  22
ENDBRANCH  20  21
ENDBRANCH  13  20
ENDBRANCH   6  13
BRANCH   1  26
HETATM   26  C   UNL     1       2.131   2.549  -0.370  1.00  0.00     0.094 C 
HETATM   27  C   UNL     1       2.021   3.116   1.081  1.00  0.00     0.039 C 
HETATM   28  C   UNL     1       2.168   4.544   0.423  1.00  0.00     0.006 C 
HETATM   29  C   UNL     1       1.417   3.857  -0.794  1.00  0.00     0.039 C 
BRANCH  28  30
HETATM   30  C   UNL     1       1.465   5.718   1.111  1.00  0.00     0.175 C 
BRANCH  30  31
HETATM   31  O   UNL     1       0.179   5.347   1.587  1.00  0.00    -0.400 OA
HETATM   32  H   UNL     1      -0.426   5.356   0.828  1.00  0.00     0.209 HD
ENDBRANCH  30  31
ENDBRANCH  28  30
BRANCH  28  33
HETATM   33  C   UNL     1       3.643   4.946   0.181  1.00  0.00     0.175 C 
BRANCH  33  34
HETATM   34  O   UNL     1       3.713   5.916  -0.859  1.00  0.00    -0.400 OA
HETATM   35  H   UNL     1       3.742   5.441  -1.707  1.00  0.00     0.209 HD
ENDBRANCH  33  34
ENDBRANCH  28  33
ENDBRANCH   1  26
TORSDOF 14
