REMARK  5 active torsions:
REMARK  status: ('A' for Active; 'I' for Inactive)
REMARK    1  A    between atoms: O_2  and  C_3 
REMARK    2  A    between atoms: C_9  and  N_10 
REMARK       I    between atoms: N_10  and  C_11 
REMARK       I    between atoms: C_11  and  N_13 
REMARK    3  A    between atoms: N_13  and  C_14 
REMARK    4  A    between atoms: C_14  and  C_15 
REMARK    5  A    between atoms: C_15  and  C_21 
REMARK       I    between atoms: C_21  and  N_23 
ROOT
HETATM    1  N   UNL     1       5.768  -0.481   0.763  1.00  0.00    -0.305 N 
HETATM    2  C   UNL     1       5.216  -1.561   0.118  1.00  0.00     0.320 C 
HETATM    3  O   UNL     1       5.112  -1.690  -1.095  1.00  0.00    -0.247 OA
HETATM    4  N   UNL     1       4.848  -2.575   0.970  1.00  0.00    -0.342 N 
HETATM    5  H   UNL     1       6.005  -0.582   1.743  1.00  0.00     0.171 HD
HETATM    6  H   UNL     1       4.744  -2.389   1.958  1.00  0.00     0.164 HD
ENDROOT
BRANCH   4   7
HETATM    7  C   UNL     1       4.457  -3.902   0.484  1.00  0.00     0.143 C 
BRANCH   7   8
HETATM    8  C   UNL     1       5.653  -4.905   0.419  1.00  0.00     0.060 C 
HETATM    9  C   UNL     1       6.774  -4.381  -0.509  1.00  0.00     0.047 C 
HETATM   10  C   UNL     1       6.327  -4.393  -1.971  1.00  0.00     0.168 C 
HETATM   11  O   UNL     1       6.024  -5.734  -2.359  1.00  0.00    -0.391 OA
HETATM   12  C   UNL     1       4.917  -6.261  -1.632  1.00  0.00     0.168 C 
HETATM   13  C   UNL     1       5.212  -6.284  -0.135  1.00  0.00     0.047 C 
BRANCH   8  14
HETATM   14  C   UNL     1       6.112  -5.133   1.871  1.00  0.00     0.226 C 
HETATM   15  O   UNL     1       5.416  -4.869   2.851  1.00  0.00    -0.273 OA
HETATM   16  N   UNL     1       7.302  -5.757   2.076  1.00  0.00    -0.369 N 
HETATM   17  H   UNL     1       7.954  -6.000   1.345  1.00  0.00     0.159 HD
HETATM   18  H   UNL     1       7.574  -5.928   3.036  1.00  0.00     0.159 HD
ENDBRANCH   8  14
ENDBRANCH   7   8
ENDBRANCH   4   7
BRANCH   1  19
HETATM   19  C   UNL     1       6.290   0.680   0.128  1.00  0.00     0.087 A 
HETATM   20  C   UNL     1       7.083   1.585   0.849  1.00  0.00     0.169 A 
HETATM   21  N   UNL     1       7.629   2.712   0.318  1.00  0.00    -0.345 N 
HETATM   22  C   UNL     1       7.383   2.951  -0.987  1.00  0.00     0.090 A 
ATOM     23  HN  UNL     1       8.197   3.346   0.880  1.00  0.00     0.167 HD
HETATM   24  C   UNL     1       6.621   2.124  -1.786  1.00  0.00     0.019 A 
HETATM   25  C   UNL     1       6.063   0.983  -1.216  1.00  0.00     0.035 A 
BRANCH  20  26
HETATM   26  O   UNL     1       7.346   1.289   2.179  1.00  0.00    -0.339 OA
HETATM   27  C   UNL     1       8.271   2.204   2.768  1.00  0.00     0.211 C 
ENDBRANCH  20  26
ENDBRANCH   1  19
TORSDOF 5
