REMARK  4 active torsions:
REMARK  status: ('A' for Active; 'I' for Inactive)
REMARK    1  A    between atoms: C_6  and  N_7 
REMARK       I    between atoms: N_7  and  C_8 
REMARK       I    between atoms: C_8  and  N_10 
REMARK    2  A    between atoms: N_10  and  C_11 
REMARK    3  A    between atoms: C_11  and  C_12 
REMARK    4  A    between atoms: C_12  and  C_13 
REMARK       I    between atoms: C_13  and  N_15 
ROOT
HETATM    1  N   UNL     1       6.164  -2.929  -1.217  1.00  0.00    -0.295 N 
HETATM    2  C   UNL     1       5.568  -4.128  -1.486  1.00  0.00     0.321 C 
HETATM    3  O   UNL     1       5.356  -4.459  -2.650  1.00  0.00    -0.247 OA
HETATM    4  N   UNL     1       5.237  -4.894  -0.416  1.00  0.00    -0.342 N 
HETATM    5  H   UNL     1       6.360  -2.386  -2.044  1.00  0.00     0.172 HD
HETATM    6  H   UNL     1       5.486  -4.506   0.492  1.00  0.00     0.164 HD
ENDROOT
BRANCH   1   7
HETATM    7  C   UNL     1       6.521  -2.405   0.031  1.00  0.00     0.109 A 
HETATM    8  C   UNL     1       7.110  -1.150   0.087  1.00  0.00     0.049 A 
HETATM    9  C   UNL     1       7.466  -0.640   1.331  1.00  0.00     0.006 A 
HETATM   10  C   UNL     1       7.228  -1.388   2.480  1.00  0.00     0.025 A 
HETATM   11  C   UNL     1       6.632  -2.634   2.346  1.00  0.00     0.007 A 
HETATM   12  C   UNL     1       6.376  -3.526   3.520  1.00  0.00     0.068 C 
HETATM   13  N   UNL     1       6.288  -3.138   1.142  1.00  0.00    -0.346 N 
ATOM     14  HN  UNL     1       5.858  -4.060   1.072  1.00  0.00     0.167 HD
ENDBRANCH   1   7
BRANCH   4  15
HETATM   15  C   UNL     1       4.591  -6.182  -0.477  1.00  0.00     0.133 C 
BRANCH  15  16
HETATM   16  C   UNL     1       5.596  -7.318  -0.620  1.00  0.00     0.122 C 
BRANCH  16  17
HETATM   17  C   UNL     1       4.880  -8.655  -0.605  1.00  0.00     0.221 C 
HETATM   18  O   UNL     1       3.656  -8.715  -0.477  1.00  0.00    -0.273 OA
HETATM   19  N   UNL     1       5.661  -9.801  -0.715  1.00  0.00    -0.352 N 
HETATM   20  C   UNL     1       7.123  -9.814  -0.771  1.00  0.00     0.125 C 
HETATM   21  C   UNL     1       5.022 -11.088  -0.442  1.00  0.00     0.125 C 
HETATM   22  C   UNL     1       7.634 -10.892  -1.725  1.00  0.00     0.020 C 
HETATM   23  C   UNL     1       7.036 -12.257  -1.395  1.00  0.00     0.003 C 
HETATM   24  C   UNL     1       5.513 -12.181  -1.383  1.00  0.00     0.020 C 
ENDBRANCH  16  17
ENDBRANCH  15  16
ENDBRANCH   4  15
TORSDOF 4
