REMARK  4 active torsions:
REMARK  status: ('A' for Active; 'I' for Inactive)
REMARK    1  A    between atoms: C_5  and  C_6 
REMARK    2  A    between atoms: C_6  and  C_7 
REMARK    3  A    between atoms: C_7  and  N_8 
REMARK       I    between atoms: N_8  and  C_9 
REMARK    4  A    between atoms: C_9  and  C_11 
ROOT
HETATM    1  C   UNL     1       7.028   0.844  -0.057  1.00  0.00     0.128 C 
ENDROOT
BRANCH   1   2
HETATM    2  C   UNL     1       5.654   1.517  -0.111  1.00  0.00     0.077 C 
BRANCH   2   3
HETATM    3  C   UNL     1       4.538   0.523  -0.092  1.00  0.00     0.018 A 
HETATM    4  N   UNL     1       4.421  -0.372  -1.142  1.00  0.00    -0.357 N 
HETATM    5  C   UNL     1       3.382  -1.158  -0.951  1.00  0.00     0.046 A 
ATOM      6  HN  UNL     1       5.048  -0.416  -1.946  1.00  0.00     0.166 HD
HETATM    7  C   UNL     1       2.961  -2.240  -1.880  1.00  0.00     0.076 C 
HETATM    8  S   UNL     1       2.488  -0.867   0.488  1.00  0.00    -0.087 SA
HETATM    9  C   UNL     1       3.570   0.398   0.887  1.00  0.00     0.076 A 
ENDBRANCH   2   3
ENDBRANCH   1   2
BRANCH   1  10
HETATM   10  N   UNL     1       8.132   1.794  -0.024  1.00  0.00    -0.360 N 
HETATM   11  C   UNL     1       8.357   2.603   1.070  1.00  0.00     0.221 C 
HETATM   12  O   UNL     1       7.604   2.577   2.049  1.00  0.00    -0.273 OA
HETATM   13  H   UNL     1       8.811   1.758  -0.773  1.00  0.00     0.162 HD
BRANCH  11  14
HETATM   14  C   UNL     1       9.591   3.527   1.003  1.00  0.00     0.078 C 
HETATM   15  C   UNL     1       9.297   5.055   0.984  1.00  0.00     0.014 C 
HETATM   16  C   UNL     1      10.581   5.225   0.153  1.00  0.00     0.002 C 
HETATM   17  C   UNL     1      10.385   3.767  -0.310  1.00  0.00     0.014 C 
ENDBRANCH  11  14
ENDBRANCH   1  10
TORSDOF 4
