REMARK  6 active torsions:
REMARK  status: ('A' for Active; 'I' for Inactive)
REMARK    1  A    between atoms: C_2  and  O_3 
REMARK    2  A    between atoms: C_2  and  C_4 
REMARK    3  A    between atoms: N_13  and  C_14 
REMARK    4  A    between atoms: C_14  and  C_15 
REMARK    5  A    between atoms: C_15  and  O_16 
REMARK    6  A    between atoms: O_16  and  C_17 
ROOT
HETATM    1  C   UNL     1       2.966   1.278  -0.725  1.00  0.00     0.113 A 
HETATM    2  N   UNL     1       2.599   2.501  -0.390  1.00  0.00    -0.342 N 
ATOM      3  HN  UNL     1       2.032   2.770   0.414  1.00  0.00     0.167 HD
HETATM    4  C   UNL     1       3.128   3.334  -1.331  1.00  0.00     0.060 A 
HETATM    5  C   UNL     1       3.022   4.729  -1.427  1.00  0.00     0.032 A 
HETATM    6  C   UNL     1       3.637   5.378  -2.499  1.00  0.00     0.002 A 
HETATM    7  C   UNL     1       4.351   4.649  -3.450  1.00  0.00     0.002 A 
HETATM    8  C   UNL     1       4.480   3.253  -3.361  1.00  0.00     0.032 A 
HETATM    9  C   UNL     1       3.851   2.619  -2.281  1.00  0.00     0.062 A 
HETATM   10  N   UNL     1       3.753   1.303  -1.865  1.00  0.00    -0.331 N 
ENDROOT
BRANCH  10  11
HETATM   11  C   UNL     1       4.398   0.168  -2.507  1.00  0.00     0.157 C 
BRANCH  11  12
HETATM   12  C   UNL     1       5.797  -0.081  -1.948  1.00  0.00     0.196 C 
BRANCH  12  13
HETATM   13  O   UNL     1       6.394  -1.224  -2.572  1.00  0.00    -0.346 OA
BRANCH  13  14
HETATM   14  C   UNL     1       7.669  -1.544  -2.165  1.00  0.00     0.107 A 
HETATM   15  C   UNL     1       8.396  -0.851  -1.189  1.00  0.00     0.040 A 
HETATM   16  C   UNL     1       9.694  -1.253  -0.851  1.00  0.00     0.003 A 
HETATM   17  C   UNL     1      10.280  -2.352  -1.475  1.00  0.00     0.003 A 
HETATM   18  C   UNL     1       9.563  -3.054  -2.442  1.00  0.00     0.045 A 
HETATM   19  C   UNL     1       8.270  -2.653  -2.774  1.00  0.00     0.149 A 
HETATM   20  F   UNL     1       7.607  -3.352  -3.710  1.00  0.00    -0.203 F 
ENDBRANCH  13  14
ENDBRANCH  12  13
ENDBRANCH  11  12
ENDBRANCH  10  11
BRANCH   1  21
HETATM   21  C   UNL     1       2.595   0.050   0.052  1.00  0.00     0.181 C 
HETATM   22  C   UNL     1       1.723   0.390   1.260  1.00  0.00     0.047 C 
BRANCH  21  23
HETATM   23  O   UNL     1       1.864  -0.813  -0.816  1.00  0.00    -0.388 OA
HETATM   24  H   UNL     1       0.982  -0.414  -0.926  1.00  0.00     0.210 HD
ENDBRANCH  21  23
ENDBRANCH   1  21
TORSDOF 6
