REMARK  5 active torsions:
REMARK  status: ('A' for Active; 'I' for Inactive)
REMARK    1  A    between atoms: O_1  and  C_2 
REMARK    2  A    between atoms: C_2  and  C_3 
REMARK    3  A    between atoms: C_2  and  C_16 
REMARK    4  A    between atoms: C_3  and  N_4 
REMARK    5  A    between atoms: C_16  and  C_17 
ROOT
HETATM    1  N   UNL     1       2.439  -2.417  -0.538  1.00  0.00    -0.271 N 
HETATM    2  N   UNL     1       2.737  -2.806   0.718  1.00  0.00    -0.019 NA
HETATM    3  N   UNL     1       2.304  -4.050   0.863  1.00  0.00    -0.282 N 
ATOM      4  HN  UNL     1       2.391  -4.620   1.704  1.00  0.00     0.184 HD
HETATM    5  C   UNL     1       1.720  -4.437  -0.311  1.00  0.00     0.075 A 
HETATM    6  C   UNL     1       1.135  -5.656  -0.679  1.00  0.00     0.058 A 
HETATM    7  C   UNL     1       0.601  -5.781  -1.969  1.00  0.00     0.058 A 
HETATM    8 CL   UNL     1      -0.098  -7.308  -2.389  1.00  0.00    -0.082 Cl
HETATM    9  C   UNL     1       0.640  -4.707  -2.872  1.00  0.00     0.058 A 
HETATM   10 CL   UNL     1      -0.015  -4.824  -4.469  1.00  0.00    -0.082 Cl
HETATM   11  C   UNL     1       1.229  -3.483  -2.515  1.00  0.00     0.058 A 
HETATM   12  C   UNL     1       1.766  -3.388  -1.226  1.00  0.00     0.078 A 
ENDROOT
BRANCH   1  13
HETATM   13  C   UNL     1       2.926  -1.136  -1.009  1.00  0.00     0.178 C 
BRANCH  13  14
HETATM   14  C   UNL     1       2.513   0.067  -0.140  1.00  0.00     0.146 C 
BRANCH  14  15
HETATM   15  O   UNL     1       3.152   0.008   1.143  1.00  0.00    -0.394 OA
HETATM   16  H   UNL     1       3.086  -0.909   1.488  1.00  0.00     0.210 HD
ENDBRANCH  14  15
BRANCH  14  17
HETATM   17  C   UNL     1       1.016   0.287   0.075  1.00  0.00     0.150 C 
BRANCH  17  18
HETATM   18  C   UNL     1       0.246   0.538  -1.202  1.00  0.00     0.390 C 
HETATM   19  F   UNL     1       1.050   0.596  -2.286  1.00  0.00    -0.171 F 
HETATM   20  F   UNL     1      -0.648  -0.451  -1.421  1.00  0.00    -0.171 F 
HETATM   21  F   UNL     1      -0.434   1.702  -1.143  1.00  0.00    -0.171 F 
ENDBRANCH  17  18
ENDBRANCH  14  17
ENDBRANCH  13  14
ENDBRANCH   1  13
TORSDOF 5
