REMARK  7 active torsions:
REMARK  status: ('A' for Active; 'I' for Inactive)
REMARK       I    between atoms: C_2  and  N_4 
REMARK    1  A    between atoms: N_4  and  C_5 
REMARK    2  A    between atoms: C_8  and  O_9 
REMARK    3  A    between atoms: O_9  and  C_10 
REMARK    4  A    between atoms: C_10  and  C_11 
REMARK    5  A    between atoms: C_11  and  O_12 
REMARK    6  A    between atoms: C_11  and  C_13 
REMARK    7  A    between atoms: C_13  and  N_14 
ROOT
HETATM    1  C   UNL     1      11.033   0.058  -0.059  1.00  0.00     0.160 C 
ENDROOT
BRANCH   1   2
HETATM    2  C   UNL     1       9.595   0.561  -0.275  1.00  0.00     0.209 C 
BRANCH   2   3
HETATM    3  O   UNL     1       9.664   1.772  -1.037  1.00  0.00    -0.349 OA
BRANCH   3   4
HETATM    4  C   UNL     1       8.481   2.338  -1.418  1.00  0.00     0.069 A 
HETATM    5  C   UNL     1       8.548   3.709  -1.680  1.00  0.00     0.039 A 
HETATM    6  C   UNL     1       7.427   4.405  -2.138  1.00  0.00     0.032 A 
HETATM    7  C   UNL     1       6.253   3.711  -2.421  1.00  0.00     0.034 A 
HETATM    8  C   UNL     1       6.174   2.345  -2.138  1.00  0.00     0.032 A 
HETATM    9  C   UNL     1       7.281   1.661  -1.623  1.00  0.00     0.039 A 
BRANCH   7  10
HETATM   10  N   UNL     1       5.187   4.414  -3.015  1.00  0.00    -0.328 N 
HETATM   11  C   UNL     1       4.460   3.892  -4.074  1.00  0.00     0.218 C 
HETATM   12  C   UNL     1       3.400   4.834  -4.579  1.00  0.00     0.117 C 
HETATM   13  O   UNL     1       4.632   2.793  -4.592  1.00  0.00    -0.274 OA
HETATM   14  H   UNL     1       5.205   5.422  -2.938  1.00  0.00     0.169 HD
ENDBRANCH   7  10
ENDBRANCH   3   4
ENDBRANCH   2   3
ENDBRANCH   1   2
BRANCH   1  15
HETATM   15  O   UNL     1      11.565  -0.324  -1.335  1.00  0.00    -0.392 OA
HETATM   16  H   UNL     1      11.440   0.429  -1.943  1.00  0.00     0.210 HD
ENDBRANCH   1  15
BRANCH   1  17
HETATM   17  C   UNL     1      11.916   1.132   0.591  1.00  0.00     0.164 C 
BRANCH  17  18
HETATM   18  N   UNL     1      13.261   0.669   0.892  1.00  0.00    -0.332 N 
HETATM   19  C   UNL     1      13.680   0.020   2.037  1.00  0.00     0.080 A 
HETATM   20  C   UNL     1      12.795  -0.406   3.148  1.00  0.00     0.089 C 
HETATM   21  N   UNL     1      14.985  -0.170   2.017  1.00  0.00    -0.344 N 
HETATM   22  C   UNL     1      15.425   0.359   0.833  1.00  0.00     0.060 A 
ATOM     23  HN  UNL     1      15.551  -0.619   2.737  1.00  0.00     0.167 HD
HETATM   24  C   UNL     1      16.728   0.424   0.320  1.00  0.00     0.032 A 
HETATM   25  C   UNL     1      14.369   0.891   0.101  1.00  0.00     0.062 A 
HETATM   26  C   UNL     1      16.934   1.023  -0.929  1.00  0.00     0.002 A 
HETATM   27  C   UNL     1      15.861   1.543  -1.653  1.00  0.00     0.002 A 
HETATM   28  C   UNL     1      14.553   1.489  -1.155  1.00  0.00     0.032 A 
ENDBRANCH  17  18
ENDBRANCH   1  17
TORSDOF 7
