REMARK  5 active torsions:
REMARK  status: ('A' for Active; 'I' for Inactive)
REMARK    1  A    between atoms: C_5  and  C_6 
REMARK    2  A    between atoms: C_6  and  C_7 
REMARK       I    between atoms: C_7  and  N_9 
REMARK    3  A    between atoms: N_9  and  C_10 
REMARK    4  A    between atoms: C_10  and  C_11 
REMARK    5  A    between atoms: N_14  and  C_15 
ROOT
HETATM    1  C   UNL     1      13.608  -4.303   0.610  1.00  0.00     0.395 C 
HETATM    2  C   UNL     1      14.215  -5.648   0.510  1.00  0.00     0.089 C 
HETATM    3  N   UNL     1      14.702  -6.696   0.395  1.00  0.00    -0.195 NA
ENDROOT
BRANCH   1   4
HETATM    4  N   UNL     1      12.179  -4.310   0.982  1.00  0.00     0.101 N 
HETATM    5  C   UNL     1      11.324  -5.028   0.023  1.00  0.00     0.274 C 
HETATM    6  C   UNL     1      11.132  -4.285  -1.305  1.00  0.00     0.036 C 
HETATM    7  C   UNL     1      10.591  -2.860  -1.094  1.00  0.00     0.007 C 
HETATM    8  C   UNL     1      11.471  -2.133  -0.063  1.00  0.00     0.036 C 
HETATM    9  C   UNL     1      11.669  -2.951   1.219  1.00  0.00     0.274 C 
BRANCH   7  10
HETATM   10  C   UNL     1       9.101  -2.913  -0.706  1.00  0.00     0.127 C 
BRANCH  10  11
HETATM   11  N   UNL     1       8.533  -1.606  -0.444  1.00  0.00    -0.360 N 
HETATM   12  C   UNL     1       8.090  -1.259   0.818  1.00  0.00     0.221 C 
HETATM   13  O   UNL     1       8.189  -1.993   1.797  1.00  0.00    -0.273 OA
HETATM   14  H   UNL     1       8.303  -1.011  -1.227  1.00  0.00     0.162 HD
BRANCH  12  15
HETATM   15  C   UNL     1       7.449   0.111   0.912  1.00  0.00     0.142 C 
BRANCH  15  16
HETATM   16  C   UNL     1       5.996   0.142   0.526  1.00  0.00    -0.034 A 
HETATM   17  C   UNL     1       5.432   1.317   0.023  1.00  0.00     0.011 A 
HETATM   18  C   UNL     1       4.092   1.339  -0.358  1.00  0.00     0.025 A 
HETATM   19  C   UNL     1       3.336   0.183  -0.214  1.00  0.00     0.005 A 
HETATM   20  C   UNL     1       1.922   0.123  -0.707  1.00  0.00     0.068 C 
HETATM   21  N   UNL     1       3.844  -0.953   0.316  1.00  0.00    -0.369 N 
HETATM   22  C   UNL     1       5.144  -0.945   0.690  1.00  0.00     0.095 A 
ATOM     23  HN  UNL     1       3.267  -1.786   0.430  1.00  0.00     0.165 HD
ENDBRANCH  15  16
ENDBRANCH  12  15
ENDBRANCH  10  11
ENDBRANCH   7  10
ENDBRANCH   1   4
TORSDOF 5
