REMARK  5 active torsions:
REMARK  status: ('A' for Active; 'I' for Inactive)
REMARK    1  A    between atoms: O_1  and  C_2 
REMARK    2  A    between atoms: C_2  and  C_3 
REMARK    3  A    between atoms: C_3  and  N_4 
REMARK    4  A    between atoms: C_5  and  C_6 
REMARK    5  A    between atoms: C_6  and  N_7 
ROOT
HETATM    1  N   UNL     1       4.474  -1.020   1.169  1.00  0.00    -0.331 N 
HETATM    2  C   UNL     1       5.319  -2.112   1.174  1.00  0.00     0.113 A 
HETATM    3  N   UNL     1       6.580  -1.720   1.223  1.00  0.00    -0.342 N 
ATOM      4  HN  UNL     1       7.404  -2.318   1.278  1.00  0.00     0.167 HD
HETATM    5  C   UNL     1       6.561  -0.358   1.185  1.00  0.00     0.060 A 
HETATM    6  C   UNL     1       7.638   0.539   1.132  1.00  0.00     0.033 A 
HETATM    7  C   UNL     1       7.371   1.912   1.100  1.00  0.00     0.026 A 
HETATM    8  C   UNL     1       6.056   2.372   1.133  1.00  0.00     0.036 A 
HETATM    9 CL   UNL     1       5.759   4.071   1.111  1.00  0.00    -0.084 Cl
HETATM   10  C   UNL     1       4.964   1.493   1.173  1.00  0.00     0.056 A 
HETATM   11  C   UNL     1       5.254   0.121   1.184  1.00  0.00     0.064 A 
ENDROOT
BRANCH   2  12
HETATM   12  C   UNL     1       4.891  -3.560   1.043  1.00  0.00     0.348 C 
BRANCH  12  13
HETATM   13  N   UNL     1       5.527  -4.165  -0.136  1.00  0.00     0.099 N 
HETATM   14  C   UNL     1       5.030  -3.651  -1.423  1.00  0.00     0.299 C 
HETATM   15  C   UNL     1       3.763  -4.356  -1.921  1.00  0.00     0.198 C 
HETATM   16  O   UNL     1       3.969  -5.768  -2.022  1.00  0.00    -0.388 OA
HETATM   17  C   UNL     1       4.310  -6.311  -0.741  1.00  0.00     0.198 C 
HETATM   18  C   UNL     1       5.548  -5.633  -0.133  1.00  0.00     0.299 C 
ENDBRANCH  12  13
ENDBRANCH   2  12
BRANCH   1  19
HETATM   19  C   UNL     1       3.026  -1.041   1.066  1.00  0.00     0.156 C 
BRANCH  19  20
HETATM   20  C   UNL     1       2.339  -1.053   2.424  1.00  0.00     0.184 C 
BRANCH  20  21
HETATM   21  O   UNL     1       2.589  -2.282   3.097  1.00  0.00    -0.399 OA
HETATM   22  H   UNL     1       2.333  -2.156   4.028  1.00  0.00     0.209 HD
ENDBRANCH  20  21
ENDBRANCH  19  20
ENDBRANCH   1  19
TORSDOF 5
