REMARK  6 active torsions:
REMARK  status: ('A' for Active; 'I' for Inactive)
REMARK    1  A    between atoms: C_8  and  C_9 
REMARK    2  A    between atoms: C_9  and  C_10 
REMARK       I    between atoms: C_10  and  N_12 
REMARK    3  A    between atoms: N_12  and  C_13 
REMARK    4  A    between atoms: C_13  and  C_14 
REMARK    5  A    between atoms: C_14  and  C_15 
REMARK    6  A    between atoms: C_15  and  C_16 
ROOT
HETATM    1  C   UNL     1       1.822   2.998  -0.135  1.00  0.00     0.222 C 
HETATM    2  O   UNL     1       0.971   2.116  -0.224  1.00  0.00    -0.273 OA
HETATM    3  N   UNL     1       1.498   4.338  -0.074  1.00  0.00    -0.361 N 
HETATM    4  H   UNL     1       2.231   5.035  -0.023  1.00  0.00     0.162 HD
ENDROOT
BRANCH   1   5
HETATM    5  C   UNL     1       3.304   2.680  -0.062  1.00  0.00     0.146 C 
BRANCH   5   6
HETATM    6  C   UNL     1       3.992   2.528  -1.379  1.00  0.00     0.006 A 
HETATM    7  C   UNL     1       3.504   2.105  -2.653  1.00  0.00     0.038 A 
HETATM    8  C   UNL     1       2.139   1.699  -3.068  1.00  0.00     0.071 C 
HETATM    9  N   UNL     1       4.484   2.082  -3.567  1.00  0.00    -0.265 N 
HETATM   10  O   UNL     1       5.630   2.458  -2.908  1.00  0.00    -0.242 OA
ATOM     11  HN  UNL     1       4.397   1.835  -4.553  1.00  0.00     0.194 HD
HETATM   12  C   UNL     1       5.342   2.713  -1.608  1.00  0.00     0.081 A 
HETATM   13  C   UNL     1       6.487   3.094  -0.757  1.00  0.00     0.079 C 
ENDBRANCH   5   6
ENDBRANCH   1   5
BRANCH   3  14
HETATM   14  C   UNL     1       0.108   4.755  -0.071  1.00  0.00     0.122 C 
BRANCH  14  15
HETATM   15  C   UNL     1      -0.086   6.271  -0.088  1.00  0.00     0.020 C 
BRANCH  15  16
HETATM   16  C   UNL     1       0.459   6.911  -1.367  1.00  0.00     0.006 C 
BRANCH  16  17
HETATM   17  C   UNL     1       0.242   8.425  -1.429  1.00  0.00    -0.014 C 
HETATM   18  C   UNL     1      -1.221   8.868  -1.532  1.00  0.00     0.004 C 
HETATM   19  C   UNL     1      -1.200  10.199  -2.292  1.00  0.00     0.000 C 
HETATM   20  C   UNL     1       0.242  10.415  -2.739  1.00  0.00     0.000 C 
HETATM   21  C   UNL     1       0.870   9.034  -2.683  1.00  0.00     0.004 C 
ENDBRANCH  16  17
ENDBRANCH  15  16
ENDBRANCH  14  15
ENDBRANCH   3  14
TORSDOF 6
