REMARK  8 active torsions:
REMARK  status: ('A' for Active; 'I' for Inactive)
REMARK    1  A    between atoms: C_2  and  N_3 
REMARK    2  A    between atoms: C_2  and  C_11 
REMARK    3  A    between atoms: N_3  and  C_4 
REMARK    4  A    between atoms: C_4  and  C_5 
REMARK    5  A    between atoms: C_5  and  C_6 
REMARK    6  A    between atoms: C_6  and  S_7 
REMARK    7  A    between atoms: S_7  and  N_10 
REMARK    8  A    between atoms: C_11  and  N_13 
ROOT
HETATM    1  C   UNL     1       0.826   0.036  -0.063  1.00  0.00     0.045 C 
HETATM    2  C   UNL     1       2.358   0.014   0.062  1.00  0.00     0.240 C 
ENDROOT
BRANCH   2   3
HETATM    3  N   UNL     1       2.750   0.220   1.476  1.00  0.00     0.089 N 
HETATM    4  H   UNL     1       2.368   1.101   1.821  1.00  0.00     0.316 HD
BRANCH   3   5
HETATM    5  C   UNL     1       2.368  -0.870   2.366  1.00  0.00     0.271 C 
BRANCH   5   6
HETATM    6  C   UNL     1       2.861  -0.623   3.790  1.00  0.00     0.046 C 
BRANCH   6   7
HETATM    7  C   UNL     1       2.412  -1.796   4.644  1.00  0.00     0.159 C 
BRANCH   7   8
HETATM    8  S   UNL     1       2.886  -1.657   6.344  1.00  0.00     0.207 S 
HETATM    9  O   UNL     1       4.321  -1.646   6.467  1.00  0.00    -0.212 OA
HETATM   10  O   UNL     1       2.031  -0.701   7.012  1.00  0.00    -0.212 OA
BRANCH   8  11
HETATM   11  N   UNL     1       2.389  -3.171   6.878  1.00  0.00    -0.229 NA
HETATM   12  H   UNL     1       3.187  -3.749   7.145  1.00  0.00     0.136 HD
HETATM   13  H   UNL     1       1.641  -3.103   7.566  1.00  0.00     0.136 HD
ENDBRANCH   8  11
ENDBRANCH   7   8
ENDBRANCH   6   7
ENDBRANCH   5   6
ENDBRANCH   3   5
ENDBRANCH   2   3
BRANCH   2  14
HETATM   14  C   UNL     1       2.999  -1.238  -0.624  1.00  0.00     0.136 C 
HETATM   15  C   UNL     1       2.625  -1.376  -2.105  1.00  0.00     0.036 C 
BRANCH  14  16
HETATM   16  N   UNL     1       4.457  -1.263  -0.484  1.00  0.00    -0.297 N 
HETATM   17  C   UNL     1       5.353  -0.333  -0.939  1.00  0.00     0.118 A 
HETATM   18  C   UNL     1       6.605  -0.786  -0.580  1.00  0.00    -0.028 A 
HETATM   19  C   UNL     1       7.915  -0.137  -0.804  1.00  0.00     0.051 C 
HETATM   20  C   UNL     1       6.352  -2.020   0.057  1.00  0.00     0.115 A 
HETATM   21  N   UNL     1       5.054  -2.333   0.085  1.00  0.00    -0.309 N 
ATOM     22  HN  UNL     1       4.617  -3.179   0.450  1.00  0.00     0.186 HD
ENDBRANCH  14  16
ENDBRANCH   2  14
TORSDOF 8
