REMARK  8 active torsions:
REMARK  status: ('A' for Active; 'I' for Inactive)
REMARK    1  A    between atoms: N_8  and  C_9 
REMARK    2  A    between atoms: C_9  and  C_10 
REMARK    3  A    between atoms: C_10  and  O_11 
REMARK    4  A    between atoms: C_10  and  C_12 
REMARK    5  A    between atoms: C_12  and  N_13 
REMARK    6  A    between atoms: N_16  and  C_17 
REMARK    7  A    between atoms: C_17  and  C_18 
REMARK    8  A    between atoms: C_18  and  O_19 
ROOT
HETATM    1  C   UNL     1       7.239   2.314   0.204  1.00  0.00     0.164 C 
ENDROOT
BRANCH   1   2
HETATM    2  C   UNL     1       7.676   0.839   0.120  1.00  0.00     0.163 C 
BRANCH   2   3
HETATM    3  N   UNL     1       6.550  -0.079   0.137  1.00  0.00    -0.339 N 
HETATM    4  C   UNL     1       6.030  -0.653   1.265  1.00  0.00     0.184 A 
HETATM    5  N   UNL     1       5.002  -1.421   0.989  1.00  0.00    -0.350 N 
HETATM    6  C   UNL     1       4.849  -1.338  -0.373  1.00  0.00     0.060 A 
ATOM      7  HN  UNL     1       4.439  -1.962   1.645  1.00  0.00     0.166 HD
HETATM    8  C   UNL     1       3.882  -1.935  -1.193  1.00  0.00     0.039 A 
HETATM    9  C   UNL     1       5.826  -0.528  -0.942  1.00  0.00     0.062 A 
HETATM   10  C   UNL     1       3.910  -1.707  -2.583  1.00  0.00    -0.054 A 
HETATM   11  C   UNL     1       2.834  -2.324  -3.437  1.00  0.00     0.049 C 
HETATM   12  C   UNL     1       4.925  -0.902  -3.144  1.00  0.00    -0.054 A 
HETATM   13  C   UNL     1       5.906  -0.306  -2.323  1.00  0.00     0.039 A 
HETATM   14  C   UNL     1       4.973  -0.649  -4.629  1.00  0.00     0.049 C 
ENDBRANCH   2   3
ENDBRANCH   1   2
BRANCH   1  15
HETATM   15  O   UNL     1       6.586   2.583   1.454  1.00  0.00    -0.392 OA
HETATM   16  H   UNL     1       7.194   2.365   2.180  1.00  0.00     0.210 HD
ENDBRANCH   1  15
BRANCH   1  17
HETATM   17  C   UNL     1       8.441   3.287   0.067  1.00  0.00     0.305 C 
BRANCH  17  18
HETATM   18  N   UNL     1       9.253   3.050  -1.123  1.00  0.00     0.094 N 
HETATM   19  C   UNL     1       8.566   3.346  -2.392  1.00  0.00     0.302 C 
HETATM   20  C   UNL     1       9.427   2.825  -3.570  1.00  0.00     0.302 C 
HETATM   21  N   UNL     1      10.804   3.385  -3.632  1.00  0.00     0.093 N 
HETATM   22  C   UNL     1      11.417   3.290  -2.289  1.00  0.00     0.302 C 
HETATM   23  C   UNL     1      10.535   3.776  -1.111  1.00  0.00     0.302 C 
BRANCH  21  24
HETATM   24  C   UNL     1      10.770   4.755  -4.180  1.00  0.00     0.298 C 
BRANCH  24  25
HETATM   25  C   UNL     1      12.165   5.347  -4.441  1.00  0.00     0.194 C 
BRANCH  25  26
HETATM   26  O   UNL     1      12.945   4.467  -5.245  1.00  0.00    -0.399 OA
HETATM   27  H   UNL     1      12.739   3.568  -4.918  1.00  0.00     0.209 HD
ENDBRANCH  25  26
ENDBRANCH  24  25
ENDBRANCH  21  24
ENDBRANCH  17  18
ENDBRANCH   1  17
TORSDOF 8
