REMARK  5 active torsions:
REMARK  status: ('A' for Active; 'I' for Inactive)
REMARK    1  A    between atoms: C_2  and  C_3 
REMARK    2  A    between atoms: C_2  and  N_10 
REMARK    3  A    between atoms: C_3  and  N_4 
REMARK       I    between atoms: N_10  and  C_11 
REMARK       I    between atoms: C_11  and  N_13 
REMARK    4  A    between atoms: N_13  and  C_14 
REMARK    5  A    between atoms: C_14  and  C_16 
ROOT
HETATM    1  N   UNL     1       3.195  -1.305   0.736  1.00  0.00    -0.337 N 
HETATM    2  C   UNL     1       4.556  -1.437   0.769  1.00  0.00     0.316 C 
HETATM    3  O   UNL     1       5.313  -0.689   0.165  1.00  0.00    -0.247 OA
HETATM    4  N   UNL     1       4.967  -2.478   1.552  1.00  0.00    -0.336 N 
HETATM    5  H   UNL     1       2.642  -1.904   1.331  1.00  0.00     0.164 HD
HETATM    6  H   UNL     1       4.294  -3.113   1.956  1.00  0.00     0.164 HD
ENDROOT
BRANCH   1   7
HETATM    7  C   UNL     1       2.550  -0.195   0.027  1.00  0.00     0.100 C 
HETATM    8  C   UNL     1       1.100  -0.565  -0.275  1.00  0.00     0.034 C 
BRANCH   7   9
HETATM    9  C   UNL     1       2.665   1.122   0.825  1.00  0.00     0.153 C 
BRANCH   9  10
HETATM   10  N   UNL     1       2.146   2.292   0.144  1.00  0.00    -0.350 N 
HETATM   11  C   UNL     1       1.151   3.117   0.590  1.00  0.00     0.108 A 
HETATM   12  C   UNL     1       1.056   4.109  -0.361  1.00  0.00     0.106 A 
HETATM   13  N   UNL     1       1.961   3.902  -1.367  1.00  0.00    -0.361 N 
HETATM   14  C   UNL     1       2.616   2.814  -1.028  1.00  0.00     0.182 A 
ATOM     15  HN  UNL     1       2.098   4.471  -2.202  1.00  0.00     0.166 HD
ENDBRANCH   9  10
ENDBRANCH   7   9
ENDBRANCH   1   7
BRANCH   4  16
HETATM   16  C   UNL     1       6.378  -2.829   1.713  1.00  0.00     0.111 C 
HETATM   17  C   UNL     1       6.789  -2.608   3.170  1.00  0.00     0.035 C 
BRANCH  16  18
HETATM   18  C   UNL     1       6.663  -4.278   1.276  1.00  0.00     0.143 C 
HETATM   19  C   UNL     1       6.327  -4.604  -0.174  1.00  0.00     0.036 C 
HETATM   20  C   UNL     1       5.889  -6.056  -0.144  1.00  0.00     0.029 C 
HETATM   21  C   UNL     1       5.973  -6.456   1.314  1.00  0.00     0.168 C 
HETATM   22  O   UNL     1       5.908  -5.230   2.053  1.00  0.00    -0.384 OA
ENDBRANCH  16  18
ENDBRANCH   4  16
TORSDOF 5
