REMARK  5 active torsions:
REMARK  status: ('A' for Active; 'I' for Inactive)
REMARK    1  A    between atoms: C_2  and  C_3 
REMARK    2  A    between atoms: C_2  and  N_17 
REMARK       I    between atoms: C_3  and  N_5 
REMARK    3  A    between atoms: N_5  and  C_6 
REMARK    4  A    between atoms: C_6  and  C_7 
REMARK    5  A    between atoms: C_7  and  C_12 
REMARK       I    between atoms: C_12  and  N_14 
ROOT
HETATM    1  C   UNL     1       2.577   1.789  -0.865  1.00  0.00     0.242 C 
HETATM    2  O   UNL     1       3.681   2.247  -0.564  1.00  0.00    -0.271 OA
HETATM    3  N   UNL     1       2.175   1.664  -2.184  1.00  0.00    -0.358 N 
HETATM    4  H   UNL     1       1.330   1.120  -2.362  1.00  0.00     0.162 HD
ENDROOT
BRANCH   3   5
HETATM    5  C   UNL     1       3.097   1.977  -3.267  1.00  0.00     0.142 C 
BRANCH   5   6
HETATM    6  C   UNL     1       2.566   1.739  -4.698  1.00  0.00     0.057 C 
HETATM    7  C   UNL     1       1.311   2.642  -4.917  1.00  0.00     0.021 C 
HETATM    8  C   UNL     1       0.239   1.803  -5.602  1.00  0.00     0.001 C 
HETATM    9  C   UNL     1       0.874   0.469  -5.928  1.00  0.00     0.001 C 
HETATM   10  C   UNL     1       2.038   0.315  -4.960  1.00  0.00     0.021 C 
BRANCH   6  11
HETATM   11  C   UNL     1       3.687   2.120  -5.718  1.00  0.00     0.229 C 
HETATM   12  O   UNL     1       3.460   2.995  -6.563  1.00  0.00    -0.272 OA
HETATM   13  N   UNL     1       4.937   1.503  -5.700  1.00  0.00    -0.360 N 
HETATM   14  C   UNL     1       5.391   0.425  -4.832  1.00  0.00     0.152 C 
HETATM   15  C   UNL     1       5.990   2.066  -6.542  1.00  0.00     0.152 C 
ENDBRANCH   6  11
ENDBRANCH   5   6
ENDBRANCH   3   5
BRANCH   1  16
HETATM   16  C   UNL     1       1.534   1.393   0.186  1.00  0.00     0.195 C 
HETATM   17  C   UNL     1       2.065   1.598   1.604  1.00  0.00     0.044 C 
BRANCH  16  18
HETATM   18  N   UNL     1       1.063   0.033  -0.056  1.00  0.00    -0.290 N 
HETATM   19  C   UNL     1       1.540  -1.138   0.464  1.00  0.00     0.112 A 
HETATM   20  C   UNL     1       0.721  -2.133  -0.015  1.00  0.00     0.037 A 
HETATM   21  C   UNL     1      -0.197  -1.470  -0.847  1.00  0.00     0.108 A 
HETATM   22  N   UNL     1       0.028  -0.156  -0.907  1.00  0.00    -0.309 N 
ATOM     23  HN  UNL     1      -0.465   0.542  -1.464  1.00  0.00     0.186 HD
ENDBRANCH  16  18
ENDBRANCH   1  16
TORSDOF 5
