REMARK  3 active torsions:
REMARK  status: ('A' for Active; 'I' for Inactive)
REMARK    1  A    between atoms: C_2  and  C_3 
REMARK       I    between atoms: C_2  and  N_13 
REMARK    2  A    between atoms: C_3  and  N_4 
REMARK    3  A    between atoms: N_13  and  C_14 
ROOT
HETATM    1  N   UNL     1       0.109   2.119  -0.188  1.00  0.00    -0.277 N 
HETATM    2  C   UNL     1      -0.190   2.749  -1.358  1.00  0.00     0.203 A 
HETATM    3  N   UNL     1      -0.882   3.838  -1.107  1.00  0.00    -0.327 N 
ATOM      4  HN  UNL     1      -1.253   4.520  -1.768  1.00  0.00     0.169 HD
HETATM    5  C   UNL     1      -0.983   3.833   0.261  1.00  0.00     0.204 A 
HETATM    6  C   UNL     1      -1.644   4.876   0.994  1.00  0.00     0.138 C 
HETATM    7  N   UNL     1      -2.176   5.721   1.593  1.00  0.00    -0.188 NA
HETATM    8  N   UNL     1      -0.411   2.781   0.869  1.00  0.00    -0.273 N 
ATOM      9  HN  UNL     1      -0.378   2.545   1.861  1.00  0.00     0.189 HD
ENDROOT
BRANCH   1  10
HETATM   10  C   UNL     1       0.816   0.870  -0.006  1.00  0.00     0.252 C 
BRANCH  10  11
HETATM   11  C   UNL     1       2.300   1.042  -0.250  1.00  0.00     0.237 C 
HETATM   12  O   UNL     1       2.734   1.400  -1.342  1.00  0.00    -0.272 OA
HETATM   13  N   UNL     1       3.102   0.758   0.838  1.00  0.00    -0.355 N 
HETATM   14  H   UNL     1       2.666   0.461   1.702  1.00  0.00     0.162 HD
BRANCH  13  15
HETATM   15  C   UNL     1       4.566   0.885   0.860  1.00  0.00     0.084 C 
HETATM   16  C   UNL     1       5.017   2.325   0.561  1.00  0.00     0.025 C 
HETATM   17  C   UNL     1       6.457   2.599   0.998  1.00  0.00     0.002 C 
HETATM   18  C   UNL     1       7.516   2.268  -0.049  1.00  0.00     0.000 C 
HETATM   19  C   UNL     1       7.305   0.984  -0.845  1.00  0.00     0.000 C 
HETATM   20  C   UNL     1       6.758  -0.183  -0.029  1.00  0.00     0.002 C 
HETATM   21  C   UNL     1       5.228  -0.210   0.013  1.00  0.00     0.025 C 
ENDBRANCH  13  15
ENDBRANCH  10  11
ENDBRANCH   1  10
TORSDOF 3
