REMARK  7 active torsions:
REMARK  status: ('A' for Active; 'I' for Inactive)
REMARK    1  A    between atoms: N_2  and  C_3 
REMARK    2  A    between atoms: N_2  and  C_17 
REMARK    3  A    between atoms: C_3  and  C_4 
REMARK    4  A    between atoms: C_4  and  O_5 
REMARK    5  A    between atoms: C_4  and  C_6 
REMARK    6  A    between atoms: C_6  and  N_7 
REMARK    7  A    between atoms: C_17  and  C_18 
ROOT
HETATM    1  C   UNL     1       2.027   2.418  -0.714  1.00  0.00     0.164 C 
ENDROOT
BRANCH   1   2
HETATM    2  C   UNL     1       2.642   1.368   0.250  1.00  0.00     0.305 C 
BRANCH   2   3
HETATM    3  N   UNL     1       2.346  -0.058  -0.030  1.00  0.00     0.090 N 
HETATM    4  C   UNL     1       2.911  -0.866   1.065  1.00  0.00     0.310 C 
BRANCH   3   5
HETATM    5  C   UNL     1       2.907  -0.470  -1.337  1.00  0.00     0.310 C 
BRANCH   5   6
HETATM    6  C   UNL     1       2.706  -1.932  -1.692  1.00  0.00    -0.030 A 
HETATM    7  C   UNL     1       1.423  -2.494  -1.758  1.00  0.00     0.009 A 
HETATM    8  C   UNL     1       1.254  -3.845  -2.072  1.00  0.00     0.001 A 
HETATM    9  C   UNL     1       2.364  -4.646  -2.336  1.00  0.00     0.000 A 
HETATM   10  C   UNL     1       3.643  -4.096  -2.299  1.00  0.00     0.001 A 
HETATM   11  C   UNL     1       3.814  -2.746  -1.982  1.00  0.00     0.009 A 
ENDBRANCH   5   6
ENDBRANCH   3   5
ENDBRANCH   2   3
ENDBRANCH   1   2
BRANCH   1  12
HETATM   12  O   UNL     1       0.601   2.301  -0.758  1.00  0.00    -0.392 OA
HETATM   13  H   UNL     1       0.289   1.957   0.097  1.00  0.00     0.210 HD
ENDBRANCH   1  12
BRANCH   1  14
HETATM   14  C   UNL     1       2.405   3.822  -0.219  1.00  0.00     0.163 C 
BRANCH  14  15
HETATM   15  N   UNL     1       1.990   4.877  -1.120  1.00  0.00    -0.339 N 
HETATM   16  C   UNL     1       0.815   5.572  -1.023  1.00  0.00     0.184 A 
HETATM   17  N   UNL     1       0.734   6.517  -1.931  1.00  0.00    -0.350 N 
HETATM   18  C   UNL     1       1.897   6.414  -2.656  1.00  0.00     0.060 A 
ATOM     19  HN  UNL     1      -0.027   7.183  -2.068  1.00  0.00     0.166 HD
HETATM   20  C   UNL     1       2.324   7.175  -3.758  1.00  0.00     0.032 A 
HETATM   21  C   UNL     1       2.714   5.399  -2.165  1.00  0.00     0.062 A 
HETATM   22  C   UNL     1       3.564   6.884  -4.332  1.00  0.00     0.002 A 
HETATM   23  C   UNL     1       4.368   5.860  -3.824  1.00  0.00     0.002 A 
HETATM   24  C   UNL     1       3.959   5.095  -2.724  1.00  0.00     0.032 A 
ENDBRANCH  14  15
ENDBRANCH   1  14
TORSDOF 7
