REMARK  5 active torsions:
REMARK  status: ('A' for Active; 'I' for Inactive)
REMARK    1  A    between atoms: C_2  and  C_5 
REMARK    2  A    between atoms: C_9  and  N_10 
REMARK       I    between atoms: N_10  and  C_11 
REMARK       I    between atoms: C_11  and  N_13 
REMARK    3  A    between atoms: N_13  and  C_14 
REMARK    4  A    between atoms: C_14  and  C_15 
REMARK    5  A    between atoms: C_19  and  O_20 
ROOT
HETATM    1  N   UNL     1       3.952   3.121  -4.427  1.00  0.00    -0.306 N 
HETATM    2  C   UNL     1       4.574   2.650  -5.560  1.00  0.00     0.320 C 
HETATM    3  O   UNL     1       4.926   1.492  -5.749  1.00  0.00    -0.247 OA
HETATM    4  N   UNL     1       4.825   3.644  -6.476  1.00  0.00    -0.342 N 
HETATM    5  H   UNL     1       3.795   4.116  -4.373  1.00  0.00     0.171 HD
HETATM    6  H   UNL     1       4.156   4.404  -6.529  1.00  0.00     0.164 HD
ENDROOT
BRANCH   1   7
HETATM    7  C   UNL     1       3.605   2.332  -3.305  1.00  0.00     0.067 A 
HETATM    8  C   UNL     1       3.793   0.970  -3.203  1.00  0.00     0.120 A 
HETATM    9  N   UNL     1       3.449   0.234  -2.124  1.00  0.00    -0.353 N 
HETATM   10  C   UNL     1       2.909   0.883  -1.079  1.00  0.00     0.088 A 
ATOM     11  HN  UNL     1       3.594  -0.775  -2.103  1.00  0.00     0.166 HD
HETATM   12  N   UNL     1       2.667   2.210  -1.074  1.00  0.00    -0.353 N 
HETATM   13  C   UNL     1       3.028   2.900  -2.186  1.00  0.00     0.120 A 
ATOM     14  HN  UNL     1       2.234   2.672  -0.274  1.00  0.00     0.166 HD
BRANCH  10  15
HETATM   15  C   UNL     1       2.468   0.034   0.110  1.00  0.00     0.007 C 
HETATM   16  C   UNL     1       3.354  -1.225   0.229  1.00  0.00     0.022 C 
HETATM   17  C   UNL     1       1.010  -0.398  -0.114  1.00  0.00     0.022 C 
HETATM   18  C   UNL     1       2.575   0.815   1.431  1.00  0.00     0.022 C 
ENDBRANCH  10  15
ENDBRANCH   1   7
BRANCH   4  19
HETATM   19  C   UNL     1       5.446   3.300  -7.745  1.00  0.00     0.131 C 
BRANCH  19  20
HETATM   20  C   UNL     1       6.305   4.412  -8.336  1.00  0.00     0.032 C 
HETATM   21  C   UNL     1       7.467   4.852  -7.431  1.00  0.00     0.009 C 
HETATM   22  C   UNL     1       7.705   6.331  -7.741  1.00  0.00     0.003 C 
HETATM   23  C   UNL     1       6.720   6.699  -8.850  1.00  0.00     0.032 C 
HETATM   24  C   UNL     1       5.573   5.709  -8.683  1.00  0.00     0.123 C 
BRANCH  24  25
HETATM   25  O   UNL     1       4.696   6.131  -7.640  1.00  0.00    -0.395 OA
HETATM   26  H   UNL     1       5.246   6.377  -6.876  1.00  0.00     0.210 HD
ENDBRANCH  24  25
ENDBRANCH  19  20
ENDBRANCH   4  19
TORSDOF 5
