REMARK  7 active torsions:
REMARK  status: ('A' for Active; 'I' for Inactive)
REMARK    1  A    between atoms: C_2  and  C_3 
REMARK    2  A    between atoms: C_2  and  N_10 
REMARK    3  A    between atoms: C_3  and  N_4 
REMARK    4  A    between atoms: N_10  and  C_11 
REMARK    5  A    between atoms: C_11  and  C_12 
REMARK    6  A    between atoms: C_12  and  C_13 
REMARK    7  A    between atoms: C_13  and  N_14 
ROOT
HETATM    1  N   UNL     1       3.053   0.916   1.068  1.00  0.00     0.089 N 
HETATM    2  H   UNL     1       2.612   0.578   1.925  1.00  0.00     0.316 HD
ENDROOT
BRANCH   1   3
HETATM    3  C   UNL     1       2.551   0.108  -0.067  1.00  0.00     0.236 C 
HETATM    4  C   UNL     1       1.019   0.221  -0.029  1.00  0.00     0.044 C 
BRANCH   3   5
HETATM    5  C   UNL     1       3.105   0.573  -1.434  1.00  0.00     0.183 C 
BRANCH   5   6
HETATM    6  N   UNL     1       2.581  -0.176  -2.561  1.00  0.00    -0.302 N 
HETATM    7  C   UNL     1       1.896   0.327  -3.630  1.00  0.00     0.111 A 
HETATM    8  C   UNL     1       1.597  -0.748  -4.430  1.00  0.00     0.037 A 
HETATM    9  C   UNL     1       2.160  -1.855  -3.767  1.00  0.00     0.108 A 
HETATM   10  N   UNL     1       2.771  -1.509  -2.630  1.00  0.00    -0.310 N 
ATOM     11  HN  UNL     1       3.264  -2.111  -1.971  1.00  0.00     0.186 HD
ENDBRANCH   5   6
ENDBRANCH   3   5
ENDBRANCH   1   3
BRANCH   1  12
HETATM   12  C   UNL     1       4.506   0.863   1.230  1.00  0.00     0.272 C 
BRANCH  12  13
HETATM   13  C   UNL     1       4.906   1.678   2.462  1.00  0.00     0.050 C 
BRANCH  13  14
HETATM   14  C   UNL     1       6.423   1.700   2.613  1.00  0.00     0.127 C 
BRANCH  14  15
HETATM   15  N   UNL     1       6.888   2.403   3.799  1.00  0.00    -0.352 N 
HETATM   16  C   UNL     1       6.463   2.014   5.122  1.00  0.00     0.126 C 
HETATM   17  C   UNL     1       7.372   2.776   6.064  1.00  0.00     0.029 C 
HETATM   18  C   UNL     1       8.608   3.106   5.243  1.00  0.00     0.104 C 
HETATM   19  C   UNL     1       8.147   2.997   3.814  1.00  0.00     0.219 C 
HETATM   20  O   UNL     1       8.816   3.304   2.841  1.00  0.00    -0.273 OA
ENDBRANCH  14  15
ENDBRANCH  13  14
ENDBRANCH  12  13
ENDBRANCH   1  12
TORSDOF 7
