REMARK  3 active torsions:
REMARK  status: ('A' for Active; 'I' for Inactive)
REMARK    1  A    between atoms: O_2  and  C_3 
REMARK    2  A    between atoms: C_9  and  N_10 
REMARK    3  A    between atoms: N_10  and  C_11 
ROOT
HETATM    1  C   UNL     1       5.119   1.755  -1.558  1.00  0.00     0.145 A 
HETATM    2  C   UNL     1       4.329   0.680  -1.233  1.00  0.00     0.080 A 
HETATM    3  C   UNL     1       2.996   0.959  -1.057  1.00  0.00     0.012 A 
HETATM    4  C   UNL     1       2.004  -0.122  -0.760  1.00  0.00     0.068 C 
HETATM    5  N   UNL     1       2.508   2.211  -1.168  1.00  0.00    -0.337 N 
ATOM      6  HN  UNL     1       1.527   2.411  -0.973  1.00  0.00     0.168 HD
HETATM    7  C   UNL     1       3.348   3.184  -1.541  1.00  0.00     0.159 A 
HETATM    8  N   UNL     1       4.654   2.999  -1.750  1.00  0.00    -0.313 N 
ATOM      9  HN  UNL     1       5.265   3.762  -2.040  1.00  0.00     0.170 HD
ENDROOT
BRANCH   7  10
HETATM   10  N   UNL     1       2.782   4.443  -1.674  1.00  0.00    -0.257 NA
HETATM   11  H   UNL     1       2.518   4.736  -0.740  1.00  0.00     0.131 HD
BRANCH  10  12
HETATM   12  C   UNL     1       3.530   5.416  -2.452  1.00  0.00     0.094 C 
HETATM   13  C   UNL     1       2.889   6.811  -2.344  1.00  0.00     0.054 C 
HETATM   14  C   UNL     1       2.496   7.105  -3.791  1.00  0.00     0.123 C 
HETATM   15  C   UNL     1       1.324   6.230  -4.232  1.00  0.00     0.034 C 
HETATM   16  O   UNL     1       3.601   6.506  -4.508  1.00  0.00    -0.379 OA
HETATM   17  C   UNL     1       1.999   4.873  -4.433  1.00  0.00     0.036 C 
HETATM   18  C   UNL     1       3.434   5.163  -3.977  1.00  0.00     0.140 C 
ENDBRANCH  10  12
ENDBRANCH   7  10
BRANCH   1  19
HETATM   19  O   UNL     1       6.472   1.496  -1.681  1.00  0.00    -0.341 OA
HETATM   20  C   UNL     1       7.250   2.672  -1.874  1.00  0.00     0.211 C 
ENDBRANCH   1  19
TORSDOF 3
