REMARK  4 active torsions:
REMARK  status: ('A' for Active; 'I' for Inactive)
REMARK    1  A    between atoms: C_8  and  C_9 
REMARK    2  A    between atoms: C_9  and  C_10 
REMARK    3  A    between atoms: C_10  and  N_11 
REMARK    4  A    between atoms: N_11  and  C_12 
ROOT
HETATM    1  N   UNL     1       0.252  -3.463  -0.370  1.00  0.00     0.089 N 
HETATM    2  H   UNL     1       0.831  -4.180   0.071  1.00  0.00     0.316 HD
ENDROOT
BRANCH   1   3
HETATM    3  C   UNL     1       0.843  -2.150  -0.125  1.00  0.00     0.275 C 
BRANCH   3   4
HETATM    4  C   UNL     1       2.335  -2.214  -0.485  1.00  0.00     0.069 C 
BRANCH   4   5
HETATM    5  C   UNL     1       2.973  -0.849  -0.510  1.00  0.00    -0.048 A 
HETATM    6  C   UNL     1       3.626  -0.280   0.594  1.00  0.00    -0.040 A 
HETATM    7  C   UNL     1       3.760  -0.978   1.913  1.00  0.00     0.050 C 
HETATM    8  C   UNL     1       4.160   1.000   0.436  1.00  0.00     0.094 A 
HETATM    9  N   UNL     1       4.110   1.722  -0.705  1.00  0.00    -0.375 N 
HETATM   10  C   UNL     1       3.477   1.150  -1.748  1.00  0.00     0.088 A 
ATOM     11  HN  UNL     1       4.529   2.650  -0.773  1.00  0.00     0.164 HD
HETATM   12  C   UNL     1       2.906  -0.110  -1.702  1.00  0.00     0.024 A 
ENDBRANCH   4   5
ENDBRANCH   3   4
ENDBRANCH   1   3
BRANCH   1  13
HETATM   13  C   UNL     1      -1.138  -3.537   0.067  1.00  0.00     0.238 C 
HETATM   14  C   UNL     1      -2.114  -2.675  -0.789  1.00  0.00     0.051 C 
HETATM   15  C   UNL     1      -3.307  -1.730  -0.818  1.00  0.00     0.035 C 
HETATM   16  C   UNL     1      -3.060  -3.941  -0.558  1.00  0.00     0.138 C 
HETATM   17  C   UNL     1      -4.229  -2.436  -1.844  1.00  0.00     0.168 C 
HETATM   18  O   UNL     1      -4.140  -3.832  -1.501  1.00  0.00    -0.385 OA
HETATM   19  C   UNL     1      -1.786  -4.789  -0.746  1.00  0.00     0.017 C 
HETATM   20  C   UNL     1      -1.540  -6.115  -0.019  1.00  0.00     0.014 C 
HETATM   21  C   UNL     1      -1.558  -5.098  -2.236  1.00  0.00     0.014 C 
HETATM   22  C   UNL     1      -0.828  -7.016  -1.044  1.00  0.00     0.001 C 
HETATM   23  C   UNL     1      -0.454  -6.129  -2.220  1.00  0.00     0.001 C 
ENDBRANCH   1  13
TORSDOF 4
