REMARK  5 active torsions:
REMARK  status: ('A' for Active; 'I' for Inactive)
REMARK    1  A    between atoms: N_8  and  C_9 
REMARK    2  A    between atoms: C_9  and  C_10 
REMARK    3  A    between atoms: C_10  and  O_11 
REMARK    4  A    between atoms: C_10  and  C_12 
REMARK    5  A    between atoms: C_12  and  N_13 
ROOT
HETATM    1  C   UNL     1       0.906  -0.136  -0.071  1.00  0.00     0.049 C 
HETATM    2  C   UNL     1       2.408  -0.014  -0.100  1.00  0.00    -0.054 A 
HETATM    3  C   UNL     1       3.185  -1.189  -0.087  1.00  0.00     0.039 A 
HETATM    4  C   UNL     1       4.584  -1.100  -0.088  1.00  0.00     0.060 A 
HETATM    5  N   UNL     1       5.526  -2.099  -0.059  1.00  0.00    -0.350 N 
ATOM      6  HN  UNL     1       5.360  -3.105  -0.030  1.00  0.00     0.166 HD
HETATM    7  C   UNL     1       6.684  -1.484  -0.076  1.00  0.00     0.184 A 
HETATM    8  N   UNL     1       6.536  -0.124  -0.063  1.00  0.00    -0.339 N 
HETATM    9  C   UNL     1       5.188   0.153  -0.112  1.00  0.00     0.062 A 
HETATM   10  C   UNL     1       4.447   1.342  -0.152  1.00  0.00     0.039 A 
HETATM   11  C   UNL     1       3.040   1.248  -0.129  1.00  0.00    -0.054 A 
HETATM   12  C   UNL     1       2.229   2.519  -0.125  1.00  0.00     0.049 C 
ENDROOT
BRANCH   8  13
HETATM   13  C   UNL     1       7.624   0.837  -0.013  1.00  0.00     0.163 C 
BRANCH  13  14
HETATM   14  C   UNL     1       7.937   1.375   1.396  1.00  0.00     0.156 C 
BRANCH  14  15
HETATM   15  O   UNL     1       6.798   2.070   1.921  1.00  0.00    -0.392 OA
HETATM   16  H   UNL     1       6.072   1.434   2.064  1.00  0.00     0.210 HD
ENDBRANCH  14  15
BRANCH  14  17
HETATM   17  C   UNL     1       8.434   0.296   2.367  1.00  0.00     0.181 C 
BRANCH  17  18
HETATM   18  N   UNL     1       8.812   0.855   3.656  1.00  0.00    -0.300 N 
HETATM   19  C   UNL     1       8.001   0.988   4.748  1.00  0.00     0.135 A 
HETATM   20  C   UNL     1       8.775   1.566   5.721  1.00  0.00     0.068 A 
HETATM   21 CL   UNL     1       8.322   2.004   7.290  1.00  0.00    -0.081 Cl
HETATM   22  C   UNL     1      10.042   1.723   5.132  1.00  0.00     0.132 A 
HETATM   23  N   UNL     1      10.076   1.277   3.868  1.00  0.00    -0.308 N 
ATOM     24  HN  UNL     1      10.866   1.261   3.223  1.00  0.00     0.186 HD
ENDBRANCH  17  18
ENDBRANCH  14  17
ENDBRANCH  13  14
ENDBRANCH   8  13
TORSDOF 5
