REMARK  4 active torsions:
REMARK  status: ('A' for Active; 'I' for Inactive)
REMARK    1  A    between atoms: C_5  and  N_8 
REMARK       I    between atoms: N_8  and  C_9 
REMARK    2  A    between atoms: C_9  and  C_11 
REMARK    3  A    between atoms: C_11  and  C_12 
REMARK    4  A    between atoms: C_15  and  C_18 
ROOT
HETATM    1  N   UNL     1       4.495  -0.686  -2.966  1.00  0.00    -0.356 N 
HETATM    2  C   UNL     1       5.142   0.089  -3.906  1.00  0.00     0.223 C 
HETATM    3  O   UNL     1       4.557   0.716  -4.786  1.00  0.00    -0.273 OA
HETATM    4  H   UNL     1       5.050  -1.109  -2.231  1.00  0.00     0.162 HD
ENDROOT
BRANCH   2   5
HETATM    5  C   UNL     1       6.655   0.072  -3.795  1.00  0.00     0.160 C 
BRANCH   5   6
HETATM    6  C   UNL     1       7.211  -1.115  -4.504  1.00  0.00     0.025 A 
HETATM    7  C   UNL     1       7.151  -1.360  -5.861  1.00  0.00     0.077 A 
HETATM    8  S   UNL     1       7.883  -2.859  -6.223  1.00  0.00    -0.086 SA
HETATM    9  C   UNL     1       8.242  -3.090  -4.547  1.00  0.00     0.058 A 
HETATM   10  N   UNL     1       7.843  -2.104  -3.764  1.00  0.00    -0.356 N 
ATOM     11  HN  UNL     1       7.981  -2.074  -2.754  1.00  0.00     0.166 HD
BRANCH   9  12
HETATM   12  C   UNL     1       8.925  -4.363  -4.051  1.00  0.00    -0.002 C 
HETATM   13  C   UNL     1      10.269  -4.590  -4.769  1.00  0.00     0.021 C 
HETATM   14  C   UNL     1       9.211  -4.254  -2.537  1.00  0.00     0.021 C 
HETATM   15  C   UNL     1       8.005  -5.578  -4.274  1.00  0.00     0.021 C 
ENDBRANCH   9  12
ENDBRANCH   5   6
ENDBRANCH   2   5
BRANCH   1  16
HETATM   16  C   UNL     1       3.042  -0.800  -2.916  1.00  0.00     0.087 C 
HETATM   17  C   UNL     1       2.417   0.357  -2.132  1.00  0.00     0.055 C 
HETATM   18  C   UNL     1       2.628   0.199  -0.625  1.00  0.00     0.274 C 
HETATM   19  N   UNL     1       2.191  -1.095  -0.088  1.00  0.00     0.084 N 
HETATM   20  C   UNL     1       0.735  -1.205  -0.021  1.00  0.00     0.309 C 
HETATM   21  C   UNL     1       2.801  -2.213  -0.817  1.00  0.00     0.274 C 
HETATM   22  C   UNL     1       2.614  -2.150  -2.334  1.00  0.00     0.055 C 
ENDBRANCH   1  16
TORSDOF 4
