REMARK  3 active torsions:
REMARK  status: ('A' for Active; 'I' for Inactive)
REMARK    1  A    between atoms: C_2  and  C_3 
REMARK    2  A    between atoms: C_2  and  N_10 
REMARK    3  A    between atoms: C_3  and  N_4 
REMARK       I    between atoms: N_10  and  C_11 
REMARK       I    between atoms: C_11  and  N_13 
REMARK       I    between atoms: N_16  and  C_19 
ROOT
HETATM    1  N   UNL     1       3.178  -1.265   0.804  1.00  0.00    -0.337 N 
HETATM    2  C   UNL     1       4.529  -1.452   0.922  1.00  0.00     0.318 C 
HETATM    3  O   UNL     1       5.330  -0.702   0.372  1.00  0.00    -0.247 OA
HETATM    4  N   UNL     1       4.913  -2.547   1.674  1.00  0.00    -0.331 N 
HETATM    5  C   UNL     1       6.346  -2.809   1.871  1.00  0.00     0.147 C 
HETATM    6  C   UNL     1       6.731  -4.246   1.469  1.00  0.00     0.145 C 
HETATM    7  N   UNL     1       5.840  -5.233   2.101  1.00  0.00    -0.349 N 
HETATM    8  C   UNL     1       4.416  -4.974   1.860  1.00  0.00     0.145 C 
HETATM    9  C   UNL     1       4.030  -3.552   2.291  1.00  0.00     0.147 C 
HETATM   10  C   UNL     1       6.195  -6.347   2.836  1.00  0.00     0.215 C 
HETATM   11  O   UNL     1       5.344  -7.100   3.322  1.00  0.00    -0.274 OA
HETATM   12  C   UNL     1       7.649  -6.668   3.080  1.00  0.00     0.117 C 
HETATM   13  H   UNL     1       2.619  -1.572   1.583  1.00  0.00     0.164 HD
ENDROOT
BRANCH   1  14
HETATM   14  C   UNL     1       2.602  -0.169   0.009  1.00  0.00     0.102 C 
HETATM   15  C   UNL     1       1.228  -0.624  -0.484  1.00  0.00     0.034 C 
BRANCH  14  16
HETATM   16  C   UNL     1       2.550   1.137   0.821  1.00  0.00     0.172 C 
BRANCH  16  17
HETATM   17  N   UNL     1       1.983   2.262   0.104  1.00  0.00    -0.302 N 
HETATM   18  C   UNL     1       2.655   3.187  -0.641  1.00  0.00     0.111 A 
HETATM   19  C   UNL     1       1.708   4.076  -1.093  1.00  0.00     0.037 A 
HETATM   20  C   UNL     1       0.496   3.608  -0.554  1.00  0.00     0.108 A 
HETATM   21  N   UNL     1       0.661   2.509   0.187  1.00  0.00    -0.310 N 
ATOM     22  HN  UNL     1      -0.048   1.981   0.696  1.00  0.00     0.186 HD
ENDBRANCH  16  17
ENDBRANCH  14  16
ENDBRANCH   1  14
TORSDOF 3
