REMARK  4 active torsions:
REMARK  status: ('A' for Active; 'I' for Inactive)
REMARK    1  A    between atoms: C_2  and  C_3 
REMARK    2  A    between atoms: C_2  and  N_15 
REMARK    3  A    between atoms: C_3  and  N_4 
REMARK       I    between atoms: N_4  and  C_5 
REMARK       I    between atoms: C_5  and  N_7 
REMARK    4  A    between atoms: N_7  and  C_8 
ROOT
HETATM    1  N   UNL     1       4.556  -1.435   0.245  1.00  0.00    -0.341 N 
HETATM    2  C   UNL     1       5.247  -2.627   0.255  1.00  0.00     0.320 C 
HETATM    3  O   UNL     1       4.696  -3.719   0.328  1.00  0.00    -0.247 OA
HETATM    4  N   UNL     1       6.604  -2.407   0.274  1.00  0.00    -0.308 N 
HETATM    5  H   UNL     1       4.891  -0.757  -0.429  1.00  0.00     0.164 HD
HETATM    6  H   UNL     1       6.857  -1.548   0.744  1.00  0.00     0.170 HD
ENDROOT
BRANCH   1   7
HETATM    7  C   UNL     1       3.117  -1.465   0.421  1.00  0.00     0.159 C 
BRANCH   7   8
HETATM    8  C   UNL     1       2.475  -0.076   0.198  1.00  0.00     0.236 C 
HETATM    9  C   UNL     1       0.992  -0.166   0.564  1.00  0.00     0.044 C 
BRANCH   8  10
HETATM   10  N   UNL     1       2.837   0.503  -1.117  1.00  0.00     0.098 N 
HETATM   11  C   UNL     1       2.410   1.903  -1.316  1.00  0.00     0.299 C 
HETATM   12  C   UNL     1       1.001   2.076  -1.916  1.00  0.00     0.198 C 
HETATM   13  O   UNL     1       0.844   1.323  -3.122  1.00  0.00    -0.388 OA
HETATM   14  C   UNL     1       1.101  -0.069  -2.893  1.00  0.00     0.198 C 
HETATM   15  C   UNL     1       2.514  -0.282  -2.324  1.00  0.00     0.299 C 
ENDBRANCH   8  10
ENDBRANCH   7   8
ENDBRANCH   1   7
BRANCH   4  16
HETATM   16  C   UNL     1       7.528  -3.469   0.330  1.00  0.00     0.051 A 
HETATM   17  C   UNL     1       8.630  -3.365   1.176  1.00  0.00     0.032 A 
HETATM   18  C   UNL     1       9.515  -4.436   1.277  1.00  0.00     0.019 A 
HETATM   19  C   UNL     1       9.294  -5.553   0.487  1.00  0.00     0.088 A 
HETATM   20  N   UNL     1       8.263  -5.672  -0.374  1.00  0.00    -0.373 N 
HETATM   21  C   UNL     1       7.391  -4.635  -0.420  1.00  0.00     0.117 A 
ATOM     22  HN  UNL     1       8.145  -6.499  -0.960  1.00  0.00     0.164 HD
ENDBRANCH   4  16
TORSDOF 4
