REMARK  4 active torsions:
REMARK  status: ('A' for Active; 'I' for Inactive)
REMARK    1  A    between atoms: C_9  and  C_10 
REMARK    2  A    between atoms: C_10  and  C_11 
REMARK       I    between atoms: C_11  and  N_13 
REMARK    3  A    between atoms: N_13  and  C_14 
REMARK    4  A    between atoms: C_14  and  C_15 
ROOT
HETATM    1  C   UNL     1       1.689   3.083  -0.056  1.00  0.00     0.222 C 
HETATM    2  O   UNL     1       0.806   2.241  -0.189  1.00  0.00    -0.273 OA
HETATM    3  N   UNL     1       1.419   4.433   0.079  1.00  0.00    -0.360 N 
HETATM    4  H   UNL     1       2.189   5.080   0.191  1.00  0.00     0.162 HD
ENDROOT
BRANCH   1   5
HETATM    5  C   UNL     1       3.160   2.711   0.021  1.00  0.00     0.145 C 
BRANCH   5   6
HETATM    6  C   UNL     1       3.913   2.757  -1.275  1.00  0.00    -0.002 A 
HETATM    7  C   UNL     1       3.456   2.519  -2.605  1.00  0.00     0.030 A 
HETATM    8  C   UNL     1       2.095   2.176  -3.092  1.00  0.00     0.070 C 
HETATM    9  N   UNL     1       4.450   2.618  -3.494  1.00  0.00    -0.303 N 
HETATM   10  N   UNL     1       5.540   2.872  -2.760  1.00  0.00    -0.300 N 
ATOM     11  HN  UNL     1       4.391   2.521  -4.508  1.00  0.00     0.186 HD
HETATM   12  C   UNL     1       6.816   2.989  -3.428  1.00  0.00     0.177 C 
HETATM   13  C   UNL     1       5.281   2.967  -1.418  1.00  0.00     0.033 A 
HETATM   14  C   UNL     1       6.330   3.213  -0.393  1.00  0.00     0.070 C 
ENDBRANCH   5   6
ENDBRANCH   1   5
BRANCH   3  15
HETATM   15  C   UNL     1       0.059   4.942   0.175  1.00  0.00     0.127 C 
BRANCH  15  16
HETATM   16  C   UNL     1      -0.507   4.811   1.598  1.00  0.00     0.003 C 
HETATM   17  C   UNL     1       0.221   5.714   2.605  1.00  0.00     0.006 C 
HETATM   18  C   UNL     1      -0.289   5.451   4.023  1.00  0.00     0.000 C 
HETATM   19  C   UNL     1      -1.803   5.617   4.136  1.00  0.00     0.000 C 
HETATM   20  C   UNL     1      -2.566   4.867   3.047  1.00  0.00     0.000 C 
HETATM   21  C   UNL     1      -2.009   5.135   1.649  1.00  0.00     0.006 C 
ENDBRANCH  15  16
ENDBRANCH   3  15
TORSDOF 4
