REMARK  6 active torsions:
REMARK  status: ('A' for Active; 'I' for Inactive)
REMARK    1  A    between atoms: O_1  and  C_2 
REMARK    2  A    between atoms: C_5  and  N_8 
REMARK       I    between atoms: N_8  and  C_9 
REMARK       I    between atoms: C_9  and  N_11 
REMARK    3  A    between atoms: N_11  and  C_12 
REMARK    4  A    between atoms: C_15  and  O_16 
REMARK    5  A    between atoms: O_16  and  C_17 
REMARK    6  A    between atoms: C_17  and  C_18 
ROOT
HETATM    1  N   UNL     1       4.518  -0.650  -2.904  1.00  0.00    -0.338 N 
HETATM    2  C   UNL     1       5.126   0.333  -3.656  1.00  0.00     0.321 C 
HETATM    3  O   UNL     1       4.513   1.253  -4.183  1.00  0.00    -0.247 OA
HETATM    4  N   UNL     1       6.473   0.090  -3.797  1.00  0.00    -0.308 N 
HETATM    5  H   UNL     1       5.075  -0.999  -2.137  1.00  0.00     0.164 HD
HETATM    6  H   UNL     1       6.715  -0.890  -3.790  1.00  0.00     0.170 HD
ENDROOT
BRANCH   4   7
HETATM    7  C   UNL     1       7.312   0.955  -4.533  1.00  0.00     0.051 A 
HETATM    8  C   UNL     1       8.302   0.410  -5.348  1.00  0.00     0.035 A 
HETATM    9  C   UNL     1       9.112   1.261  -6.097  1.00  0.00     0.058 A 
HETATM   10  C   UNL     1       8.921   2.629  -5.981  1.00  0.00     0.142 A 
HETATM   11  N   UNL     1       7.994   3.194  -5.187  1.00  0.00    -0.345 N 
HETATM   12  C   UNL     1       7.202   2.344  -4.487  1.00  0.00     0.119 A 
ATOM     13  HN  UNL     1       7.892   4.206  -5.115  1.00  0.00     0.167 HD
BRANCH  10  14
HETATM   14  O   UNL     1       9.765   3.438  -6.710  1.00  0.00    -0.327 OA
BRANCH  14  15
HETATM   15  C   UNL     1       9.289   4.789  -6.819  1.00  0.00     0.294 C 
BRANCH  15  16
HETATM   16  C   UNL     1       9.530   5.671  -5.595  1.00  0.00     0.408 C 
HETATM   17  F   UNL     1      10.232   5.062  -4.615  1.00  0.00    -0.169 F 
HETATM   18  F   UNL     1      10.247   6.769  -5.958  1.00  0.00    -0.169 F 
HETATM   19  F   UNL     1       8.373   6.130  -5.066  1.00  0.00    -0.169 F 
ENDBRANCH  15  16
ENDBRANCH  14  15
ENDBRANCH  10  14
ENDBRANCH   4   7
BRANCH   1  20
HETATM   20  C   UNL     1       3.063  -0.687  -2.769  1.00  0.00     0.086 C 
HETATM   21  C   UNL     1       2.539   0.367  -1.784  1.00  0.00     0.028 C 
HETATM   22  C   UNL     1       2.850   0.017  -0.328  1.00  0.00     0.034 C 
HETATM   23  C   UNL     1       2.360  -1.383   0.041  1.00  0.00     0.118 C 
HETATM   24  C   UNL     1       2.893  -2.440  -0.924  1.00  0.00     0.034 C 
HETATM   25  C   UNL     1       2.595  -2.094  -2.385  1.00  0.00     0.028 C 
BRANCH  23  26
HETATM   26  O   UNL     1       0.936  -1.418   0.004  1.00  0.00    -0.396 OA
HETATM   27  H   UNL     1       0.607  -0.760   0.641  1.00  0.00     0.210 HD
ENDBRANCH  23  26
ENDBRANCH   1  20
TORSDOF 6
