REMARK  8 active torsions:
REMARK  status: ('A' for Active; 'I' for Inactive)
REMARK    1  A    between atoms: N_2  and  C_10 
REMARK    2  A    between atoms: C_4  and  N_7 
REMARK    3  A    between atoms: C_9  and  C_11 
REMARK       I    between atoms: C_9  and  N_16 
REMARK    4  A    between atoms: N_16  and  C_18 
REMARK    5  A    between atoms: C_17  and  C_26 
REMARK    6  A    between atoms: C_17  and  C_27 
REMARK    7  A    between atoms: C_26  and  O_30 
REMARK    8  A    between atoms: C_27  and  O_29 
ROOT
HETATM    1  C   UNL     1       0.389  -0.676   0.030  1.00  0.00     0.122 A 
HETATM    2  N   UNL     1       1.608   1.127  -0.011  1.00  0.00    -0.322 N 
HETATM    3  C   UNL     1       0.295   0.715  -0.019  1.00  0.00     0.140 A 
HETATM    4  C   UNL     1      -0.810  -1.431   0.051  1.00  0.00     0.136 A 
HETATM    5  N   UNL     1       1.706  -1.090   0.044  1.00  0.00    -0.346 N 
ATOM      6  HN  UNL     1       2.056  -2.047   0.076  1.00  0.00     0.167 HD
HETATM    7  C   UNL     1       2.405   0.013   0.008  1.00  0.00     0.185 A 
HETATM    8  N   UNL     1      -0.838   1.434  -0.055  1.00  0.00    -0.336 N 
ATOM      9  HN  UNL     1      -0.877   2.453  -0.063  1.00  0.00     0.168 HD
HETATM   10  N   UNL     1      -1.977  -0.735  -0.061  1.00  0.00    -0.337 N 
ATOM     11  HN  UNL     1      -2.871  -1.222  -0.130  1.00  0.00     0.168 HD
HETATM   12  C   UNL     1      -1.922   0.624  -0.079  1.00  0.00     0.183 A 
ENDROOT
BRANCH   4  13
HETATM   13  N   UNL     1      -0.812  -2.816   0.131  1.00  0.00    -0.352 N 
HETATM   14  C   UNL     1      -2.064  -3.600   0.080  1.00  0.00     0.178 C 
HETATM   15  C   UNL     1      -1.730  -4.892   0.865  1.00  0.00     0.037 C 
HETATM   16  C   UNL     1      -0.219  -4.874   1.049  1.00  0.00     0.022 C 
HETATM   17  C   UNL     1       0.090  -3.392   1.130  1.00  0.00     0.125 C 
BRANCH  14  18
HETATM   18  C   UNL     1      -2.516  -3.886  -1.372  1.00  0.00     0.240 C 
HETATM   19  N   UNL     1      -2.899  -2.751  -2.073  1.00  0.00    -0.355 N 
HETATM   20  H   UNL     1      -2.713  -1.854  -1.631  1.00  0.00     0.162 HD
HETATM   21  O   UNL     1      -2.604  -5.019  -1.841  1.00  0.00    -0.271 OA
BRANCH  19  22
HETATM   22  C   UNL     1      -3.444  -2.808  -3.392  1.00  0.00     0.084 A 
HETATM   23  C   UNL     1      -3.789  -1.567  -4.170  1.00  0.00     0.027 A 
HETATM   24  C   UNL     1      -4.881  -2.432  -3.620  1.00  0.00     0.027 A 
ENDBRANCH  19  22
ENDBRANCH  14  18
ENDBRANCH   4  13
BRANCH   2  25
HETATM   25  C   UNL     1       2.215   2.422   0.035  1.00  0.00     0.094 C 
HETATM   26  C   UNL     1       1.739   3.338   1.195  1.00  0.00     0.039 C 
HETATM   27  C   UNL     1       2.077   4.547   0.245  1.00  0.00     0.006 C 
HETATM   28  C   UNL     1       1.672   3.538  -0.899  1.00  0.00     0.039 C 
BRANCH  27  29
HETATM   29  C   UNL     1       1.163   5.762   0.369  1.00  0.00     0.175 C 
BRANCH  29  30
HETATM   30  O   UNL     1       1.336   6.355   1.653  1.00  0.00    -0.400 OA
HETATM   31  H   UNL     1       0.850   5.801   2.292  1.00  0.00     0.209 HD
ENDBRANCH  29  30
ENDBRANCH  27  29
BRANCH  27  32
HETATM   32  C   UNL     1       3.558   4.982   0.205  1.00  0.00     0.175 C 
BRANCH  32  33
HETATM   33  O   UNL     1       3.991   5.367   1.504  1.00  0.00    -0.400 OA
HETATM   34  H   UNL     1       3.427   6.121   1.772  1.00  0.00     0.209 HD
ENDBRANCH  32  33
ENDBRANCH  27  32
ENDBRANCH   2  25
TORSDOF 8
