REMARK  5 active torsions:
REMARK  status: ('A' for Active; 'I' for Inactive)
REMARK    1  A    between atoms: C_2  and  C_4 
REMARK    2  A    between atoms: C_4  and  C_5 
REMARK    3  A    between atoms: C_4  and  N_18 
REMARK    4  A    between atoms: C_5  and  N_6 
REMARK       I    between atoms: N_6  and  C_7 
REMARK       I    between atoms: C_7  and  N_9 
REMARK    5  A    between atoms: N_9  and  C_10 
ROOT
HETATM    1  N   UNL     1       2.849   1.655   3.361  1.00  0.00    -0.341 N 
HETATM    2  C   UNL     1       2.193   2.114   4.470  1.00  0.00     0.321 C 
HETATM    3  O   UNL     1       1.006   1.893   4.665  1.00  0.00    -0.247 OA
HETATM    4  N   UNL     1       3.028   2.800   5.331  1.00  0.00    -0.295 N 
HETATM    5  H   UNL     1       3.796   1.945   3.153  1.00  0.00     0.164 HD
HETATM    6  H   UNL     1       3.950   2.412   5.436  1.00  0.00     0.172 HD
ENDROOT
BRANCH   1   7
HETATM    7  C   UNL     1       2.191   0.756   2.427  1.00  0.00     0.149 C 
BRANCH   7   8
HETATM    8  C   UNL     1       2.743   0.883   0.979  1.00  0.00     0.100 C 
BRANCH   8   9
HETATM    9  C   UNL     1       1.947  -0.011  -0.043  1.00  0.00     0.001 C 
HETATM   10  C   UNL     1       2.116  -1.523   0.093  1.00  0.00     0.011 C 
HETATM   11  C   UNL     1       0.433   0.274  -0.022  1.00  0.00     0.011 C 
ENDBRANCH   8   9
BRANCH   8  12
HETATM   12  N   UNL     1       4.230   0.916   0.976  1.00  0.00    -0.403 N 
HETATM   13  C   UNL     1       4.870   1.246  -0.298  1.00  0.00     0.147 C 
HETATM   14  C   UNL     1       5.143   0.042  -1.222  1.00  0.00     0.291 C 
HETATM   15  N   UNL     1       5.735  -1.159  -0.605  1.00  0.00     0.087 N 
HETATM   16  C   UNL     1       7.181  -1.199  -0.761  1.00  0.00     0.310 C 
HETATM   17  C   UNL     1       5.342  -1.380   0.798  1.00  0.00     0.291 C 
HETATM   18  C   UNL     1       4.982  -0.146   1.644  1.00  0.00     0.147 C 
ENDBRANCH   8  12
ENDBRANCH   7   8
ENDBRANCH   1   7
BRANCH   4  19
HETATM   19  C   UNL     1       2.525   3.325   6.527  1.00  0.00     0.109 A 
HETATM   20  C   UNL     1       1.325   4.025   6.555  1.00  0.00     0.049 A 
HETATM   21  C   UNL     1       0.818   4.434   7.777  1.00  0.00     0.006 A 
HETATM   22  C   UNL     1       1.518   4.114   8.935  1.00  0.00     0.025 A 
HETATM   23  C   UNL     1       2.729   3.435   8.822  1.00  0.00     0.007 A 
HETATM   24  C   UNL     1       3.470   2.994  10.049  1.00  0.00     0.068 C 
HETATM   25  N   UNL     1       3.263   3.074   7.628  1.00  0.00    -0.346 N 
ATOM     26  HN  UNL     1       4.181   2.633   7.566  1.00  0.00     0.167 HD
ENDBRANCH   4  19
TORSDOF 5
