REMARK  7 active torsions:
REMARK  status: ('A' for Active; 'I' for Inactive)
REMARK    1  A    between atoms: O_1  and  C_2 
REMARK    2  A    between atoms: C_2  and  C_3 
REMARK    3  A    between atoms: C_2  and  C_11 
REMARK    4  A    between atoms: C_3  and  O_4 
REMARK    5  A    between atoms: O_4  and  C_5 
REMARK    6  A    between atoms: C_5  and  C_6 
REMARK    7  A    between atoms: C_11  and  N_12 
ROOT
HETATM    1  N   UNL     1       4.507  -1.256  -0.830  1.00  0.00    -0.339 N 
HETATM    2  C   UNL     1       5.299  -1.992   0.006  1.00  0.00     0.184 A 
HETATM    3  N   UNL     1       6.563  -1.946  -0.345  1.00  0.00    -0.350 N 
ATOM      4  HN  UNL     1       7.352  -2.400   0.116  1.00  0.00     0.166 HD
HETATM    5  C   UNL     1       6.594  -1.156  -1.464  1.00  0.00     0.063 A 
HETATM    6  C   UNL     1       7.695  -0.780  -2.246  1.00  0.00     0.077 A 
HETATM    7  C   UNL     1       7.461   0.011  -3.368  1.00  0.00     0.157 A 
HETATM    8  F   UNL     1       8.499   0.373  -4.135  1.00  0.00    -0.203 F 
HETATM    9  C   UNL     1       6.175   0.426  -3.706  1.00  0.00     0.157 A 
HETATM   10  F   UNL     1       5.986   1.177  -4.800  1.00  0.00    -0.203 F 
HETATM   11  C   UNL     1       5.064   0.077  -2.933  1.00  0.00     0.077 A 
HETATM   12  C   UNL     1       5.312  -0.721  -1.808  1.00  0.00     0.065 A 
ENDROOT
BRANCH   1  13
HETATM   13  C   UNL     1       3.069  -1.151  -0.725  1.00  0.00     0.164 C 
BRANCH  13  14
HETATM   14  C   UNL     1       2.539   0.087   0.018  1.00  0.00     0.160 C 
BRANCH  14  15
HETATM   15  O   UNL     1       1.106   0.063  -0.080  1.00  0.00    -0.392 OA
HETATM   16  H   UNL     1       0.761   0.867   0.347  1.00  0.00     0.210 HD
ENDBRANCH  14  15
BRANCH  14  17
HETATM   17  C   UNL     1       2.933   0.125   1.502  1.00  0.00     0.201 C 
BRANCH  17  18
HETATM   18  O   UNL     1       4.328   0.355   1.636  1.00  0.00    -0.382 OA
BRANCH  18  19
HETATM   19  C   UNL     1       4.769   0.220   2.988  1.00  0.00     0.232 C 
BRANCH  19  20
HETATM   20  C   UNL     1       6.250   0.300   2.997  1.00  0.00     0.076 A 
HETATM   21  C   UNL     1       7.196   0.792   2.121  1.00  0.00     0.037 A 
HETATM   22  C   UNL     1       8.457   0.567   2.723  1.00  0.00     0.027 A 
HETATM   23  C   UNL     1       8.203  -0.056   3.922  1.00  0.00     0.142 A 
HETATM   24  O   UNL     1       6.867  -0.216   4.101  1.00  0.00    -0.325 OA
ENDBRANCH  19  20
ENDBRANCH  18  19
ENDBRANCH  17  18
ENDBRANCH  14  17
ENDBRANCH  13  14
ENDBRANCH   1  13
TORSDOF 7
