REMARK  5 active torsions:
REMARK  status: ('A' for Active; 'I' for Inactive)
REMARK    1  A    between atoms: C_2  and  N_3 
REMARK    2  A    between atoms: C_2  and  C_18 
REMARK       I    between atoms: N_3  and  C_4 
REMARK    3  A    between atoms: C_4  and  C_6 
REMARK    4  A    between atoms: C_6  and  N_7 
REMARK    5  A    between atoms: C_9  and  C_14 
ROOT
HETATM    1  N   UNL     1       2.891   1.211  -0.951  1.00  0.00    -0.355 N 
HETATM    2  C   UNL     1       3.946   1.085  -1.835  1.00  0.00     0.236 C 
HETATM    3  O   UNL     1       4.523   0.022  -2.055  1.00  0.00    -0.272 OA
HETATM    4  H   UNL     1       2.371   2.083  -0.929  1.00  0.00     0.162 HD
ENDROOT
BRANCH   2   5
HETATM    5  C   UNL     1       4.330   2.360  -2.581  1.00  0.00     0.234 C 
BRANCH   5   6
HETATM    6  N   UNL     1       3.797   2.321  -3.940  1.00  0.00    -0.315 N 
HETATM    7  C   UNL     1       4.514   1.683  -4.942  1.00  0.00     0.110 A 
HETATM    8  C   UNL     1       4.053   1.609  -6.205  1.00  0.00     0.063 A 
HETATM    9  C   UNL     1       2.768   2.215  -6.508  1.00  0.00     0.023 A 
HETATM   10  C   UNL     1       2.040   2.811  -5.554  1.00  0.00     0.075 A 
HETATM   11  C   UNL     1       2.541   2.873  -4.155  1.00  0.00     0.247 A 
HETATM   12  O   UNL     1       1.852   3.394  -3.281  1.00  0.00    -0.268 OA
BRANCH   8  13
HETATM   13  C   UNL     1       4.830   0.925  -7.296  1.00  0.00     0.418 C 
HETATM   14  F   UNL     1       4.184   0.932  -8.491  1.00  0.00    -0.166 F 
HETATM   15  F   UNL     1       6.031   1.526  -7.503  1.00  0.00    -0.166 F 
HETATM   16  F   UNL     1       5.086  -0.374  -6.998  1.00  0.00    -0.166 F 
ENDBRANCH   8  13
ENDBRANCH   5   6
ENDBRANCH   2   5
BRANCH   1  17
HETATM   17  C   UNL     1       2.441   0.088  -0.130  1.00  0.00     0.084 C 
HETATM   18  C   UNL     1       0.912   0.073  -0.048  1.00  0.00     0.032 C 
BRANCH  17  19
HETATM   19  C   UNL     1       3.062   0.125   1.286  1.00  0.00     0.012 C 
HETATM   20  C   UNL     1       4.607   0.223   1.344  1.00  0.00     0.011 C 
HETATM   21  C   UNL     1       5.007  -0.976   2.217  1.00  0.00    -0.014 C 
HETATM   22  C   UNL     1       4.767  -2.267   1.412  1.00  0.00     0.005 C 
HETATM   23  C   UNL     1       3.874  -1.007   3.237  1.00  0.00     0.010 C 
HETATM   24  C   UNL     1       3.241  -2.424   1.460  1.00  0.00     0.005 C 
HETATM   25  C   UNL     1       2.788  -1.133   2.163  1.00  0.00    -0.008 C 
ENDBRANCH  17  19
ENDBRANCH   1  17
TORSDOF 5
