REMARK  7 active torsions:
REMARK  status: ('A' for Active; 'I' for Inactive)
REMARK    1  A    between atoms: O_2  and  C_3 
REMARK    2  A    between atoms: C_3  and  C_4 
REMARK    3  A    between atoms: C_4  and  N_5 
REMARK    4  A    between atoms: C_8  and  C_13 
REMARK       I    between atoms: C_13  and  N_15 
REMARK    5  A    between atoms: N_15  and  C_16 
REMARK    6  A    between atoms: N_15  and  C_20 
REMARK    7  A    between atoms: C_16  and  C_17 
REMARK       I    between atoms: C_17  and  N_19 
ROOT
HETATM    1  C   UNL     1       7.315  -2.020   4.622  1.00  0.00     0.272 C 
HETATM    2  O   UNL     1       6.683  -2.227   3.587  1.00  0.00    -0.266 OA
HETATM    3  N   UNL     1       7.553  -0.714   5.092  1.00  0.00    -0.333 N 
ENDROOT
BRANCH   1   4
HETATM    4  C   UNL     1       7.723  -3.249   5.455  1.00  0.00     0.116 C 
HETATM    5  N   UNL     1       8.334  -4.237   4.871  1.00  0.00    -0.290 N 
HETATM    6  N   UNL     1       8.617  -5.363   5.650  1.00  0.00    -0.255 N 
ATOM      7  HN  UNL     1       8.596  -4.193   3.886  1.00  0.00     0.187 HD
HETATM    8  C   UNL     1       8.457  -5.409   7.027  1.00  0.00     0.262 C 
HETATM    9  C   UNL     1       7.717  -4.279   7.623  1.00  0.00     0.078 C 
HETATM   10  O   UNL     1       8.836  -6.320   7.758  1.00  0.00    -0.267 OA
HETATM   11  C   UNL     1       7.293  -3.263   6.871  1.00  0.00     0.042 C 
BRANCH   6  12
HETATM   12  C   UNL     1       9.127  -6.550   4.952  1.00  0.00     0.178 C 
BRANCH  12  13
HETATM   13  C   UNL     1       8.241  -7.798   5.122  1.00  0.00     0.189 C 
BRANCH  13  14
HETATM   14  O   UNL     1       6.941  -7.579   4.564  1.00  0.00    -0.394 OA
HETATM   15  C   UNL     1       6.077  -8.685   4.790  1.00  0.00     0.201 C 
ENDBRANCH  13  14
ENDBRANCH  12  13
ENDBRANCH   6  12
ENDBRANCH   1   4
BRANCH   3  16
HETATM   16  C   UNL     1       7.118   0.398   4.208  1.00  0.00     0.229 C 
BRANCH  16  17
HETATM   17  C   UNL     1       5.631   0.791   4.264  1.00  0.00     0.233 C 
HETATM   18  O   UNL     1       5.241   1.941   4.080  1.00  0.00    -0.272 OA
HETATM   19  N   UNL     1       4.730  -0.227   4.389  1.00  0.00    -0.369 N 
HETATM   20  H   UNL     1       5.006  -1.142   4.041  1.00  0.00     0.159 HD
HETATM   21  H   UNL     1       3.767   0.039   4.223  1.00  0.00     0.159 HD
ENDBRANCH  16  17
ENDBRANCH   3  16
BRANCH   3  22
HETATM   22  C   UNL     1       8.459  -0.377   6.199  1.00  0.00     0.088 C 
HETATM   23  C   UNL     1       7.917   0.678   7.177  1.00  0.00     0.025 C 
HETATM   24  C   UNL     1       9.125   1.513   7.606  1.00  0.00     0.002 C 
HETATM   25  C   UNL     1      10.346   0.851   6.981  1.00  0.00     0.002 C 
HETATM   26  C   UNL     1       9.812   0.163   5.736  1.00  0.00     0.025 C 
ENDBRANCH   3  22
TORSDOF 7
