REMARK  4 active torsions:
REMARK  status: ('A' for Active; 'I' for Inactive)
REMARK    1  A    between atoms: C_2  and  N_3 
REMARK    2  A    between atoms: C_2  and  C_22 
REMARK       I    between atoms: N_3  and  C_4 
REMARK       I    between atoms: C_4  and  N_6 
REMARK    3  A    between atoms: N_6  and  C_7 
REMARK    4  A    between atoms: C_10  and  C_14 
REMARK       I    between atoms: C_14  and  N_16 
ROOT
HETATM    1  C   UNL     1       2.637  -4.401  -2.034  1.00  0.00     0.051 A 
HETATM    2  C   UNL     1       3.601  -5.326  -1.647  1.00  0.00     0.033 A 
HETATM    3  C   UNL     1       3.325  -6.687  -1.765  1.00  0.00     0.037 A 
HETATM    4  C   UNL     1       2.112  -7.086  -2.324  1.00  0.00     0.100 A 
HETATM    5  N   UNL     1       1.153  -6.205  -2.701  1.00  0.00    -0.359 N 
ATOM      6  HN  UNL     1       0.261  -6.518  -3.085  1.00  0.00     0.165 HD
HETATM    7  C   UNL     1       1.435  -4.889  -2.543  1.00  0.00     0.118 A 
ENDROOT
BRANCH   1   8
HETATM    8  N   UNL     1       2.912  -3.027  -1.888  1.00  0.00    -0.308 N 
HETATM    9  C   UNL     1       1.947  -2.126  -1.486  1.00  0.00     0.321 C 
HETATM   10  N   UNL     1       2.477  -0.869  -1.353  1.00  0.00    -0.338 N 
HETATM   11  O   UNL     1       0.799  -2.409  -1.175  1.00  0.00    -0.247 OA
HETATM   12  H   UNL     1       3.156  -0.588  -2.045  1.00  0.00     0.164 HD
HETATM   13  H   UNL     1       3.849  -2.768  -1.617  1.00  0.00     0.170 HD
BRANCH  10  14
HETATM   14  C   UNL     1       1.738   0.173  -0.668  1.00  0.00     0.086 C 
HETATM   15  C   UNL     1       0.686   0.821  -1.564  1.00  0.00     0.032 C 
BRANCH  14  16
HETATM   16  C   UNL     1       2.737   1.183  -0.165  1.00  0.00     0.008 A 
HETATM   17  C   UNL     1       3.839   0.744   0.776  1.00  0.00     0.007 A 
HETATM   18  C   UNL     1       2.727   1.615   1.281  1.00  0.00     0.007 A 
ENDBRANCH  14  16
ENDBRANCH  10  14
ENDBRANCH   1   8
BRANCH   4  19
HETATM   19  C   UNL     1       1.856  -8.554  -2.484  1.00  0.00     0.270 C 
HETATM   20  O   UNL     1       2.400  -9.302  -1.665  1.00  0.00    -0.266 OA
HETATM   21  N   UNL     1       1.074  -9.056  -3.537  1.00  0.00    -0.347 N 
HETATM   22  C   UNL     1       0.660  -8.308  -4.724  1.00  0.00     0.126 C 
HETATM   23  C   UNL     1       1.020 -10.514  -3.688  1.00  0.00     0.126 C 
HETATM   24  C   UNL     1      -0.732  -8.731  -5.187  1.00  0.00     0.020 C 
HETATM   25  C   UNL     1      -0.797 -10.237  -5.417  1.00  0.00     0.003 C 
HETATM   26  C   UNL     1      -0.349 -10.988  -4.167  1.00  0.00     0.020 C 
ENDBRANCH   4  19
TORSDOF 4
