REMARK  5 active torsions:
REMARK  status: ('A' for Active; 'I' for Inactive)
REMARK    1  A    between atoms: O_2  and  C_3 
REMARK    2  A    between atoms: C_3  and  C_4 
REMARK    3  A    between atoms: C_4  and  N_5 
REMARK    4  A    between atoms: C_8  and  N_9 
REMARK       I    between atoms: N_9  and  C_10 
REMARK       I    between atoms: C_10  and  N_12 
REMARK    5  A    between atoms: N_12  and  C_13 
ROOT
HETATM    1  N   UNL     1       6.346  -2.836  -5.077  1.00  0.00    -0.294 N 
HETATM    2  C   UNL     1       5.682  -3.987  -4.754  1.00  0.00     0.322 C 
HETATM    3  O   UNL     1       4.998  -4.033  -3.734  1.00  0.00    -0.247 OA
HETATM    4  N   UNL     1       5.832  -5.038  -5.609  1.00  0.00    -0.338 N 
HETATM    5  H   UNL     1       6.234  -2.085  -4.412  1.00  0.00     0.172 HD
HETATM    6  H   UNL     1       6.276  -4.789  -6.493  1.00  0.00     0.164 HD
ENDROOT
BRANCH   1   7
HETATM    7  C   UNL     1       7.112  -2.598  -6.198  1.00  0.00     0.125 A 
HETATM    8  C   UNL     1       7.781  -1.387  -6.491  1.00  0.00     0.069 A 
HETATM    9  C   UNL     1       8.407  -1.603  -7.697  1.00  0.00     0.114 A 
HETATM   10  N   UNL     1       8.108  -2.886  -8.048  1.00  0.00    -0.300 N 
HETATM   11  N   UNL     1       7.304  -3.496  -7.169  1.00  0.00    -0.283 N 
ATOM     12  HN  UNL     1       6.921  -4.440  -7.227  1.00  0.00     0.188 HD
BRANCH  10  13
HETATM   13  C   UNL     1       8.543  -3.612  -9.221  1.00  0.00     0.174 C 
BRANCH  13  14
HETATM   14  C   UNL     1      10.051  -3.797  -9.265  1.00  0.00     0.188 C 
BRANCH  14  15
HETATM   15  O   UNL     1      10.388  -4.545 -10.435  1.00  0.00    -0.394 OA
HETATM   16  C   UNL     1      11.794  -4.721 -10.556  1.00  0.00     0.201 C 
ENDBRANCH  14  15
ENDBRANCH  13  14
ENDBRANCH  10  13
ENDBRANCH   1   7
BRANCH   4  17
HETATM   17  C   UNL     1       5.062  -6.266  -5.536  1.00  0.00     0.086 C 
HETATM   18  C   UNL     1       5.818  -7.424  -6.202  1.00  0.00     0.026 C 
HETATM   19  C   UNL     1       5.801  -7.383  -7.735  1.00  0.00     0.011 C 
HETATM   20  C   UNL     1       4.395  -7.176  -8.342  1.00  0.00    -0.048 C 
HETATM   21  C   UNL     1       4.534  -6.909  -9.853  1.00  0.00     0.015 C 
HETATM   22  C   UNL     1       3.530  -8.440  -8.164  1.00  0.00     0.015 C 
HETATM   23  C   UNL     1       3.716  -5.962  -7.674  1.00  0.00     0.011 C 
HETATM   24  C   UNL     1       3.671  -6.068  -6.148  1.00  0.00     0.026 C 
ENDBRANCH   4  17
TORSDOF 5
