REMARK  6 active torsions:
REMARK  status: ('A' for Active; 'I' for Inactive)
REMARK    1  A    between atoms: O_1  and  C_2 
REMARK    2  A    between atoms: C_2  and  CA_4 
REMARK    3  A    between atoms: CA_4  and  CB_5 
REMARK    4  A    between atoms: CA_4  and  N_12 
REMARK    5  A    between atoms: CB_5  and  CG_6 
REMARK       I    between atoms: N_12  and  C_16 
REMARK    6  A    between atoms: C_16  and  C_18 
ROOT
ATOM      1  CA  HIS A   1       3.194   1.285   0.579  1.00  0.00     0.188 C 
ENDROOT
BRANCH   1   2
ATOM      2  C   HIS A   1       2.555  -0.022   0.069  1.00  0.00     0.163 C 
ATOM      3  OXT HIS A   1       3.213  -0.957  -0.379  1.00  0.00    -0.648 OA
BRANCH   2   4
ATOM      4  O   HIS A   1       1.203  -0.026   0.015  1.00  0.00    -0.775 OA
ATOM      5  H   HIS A   1       0.765   0.745   0.417  1.00  0.00     0.167 HD
ENDBRANCH   2   4
ENDBRANCH   1   2
BRANCH   1   6
ATOM      6  CB  HIS A   1       2.701   1.714   1.968  1.00  0.00     0.094 C 
BRANCH   6   7
ATOM      7  CG  HIS A   1       3.104   0.769   3.042  1.00  0.00     0.028 A 
ATOM      8  CD2 HIS A   1       3.926   0.983   4.126  1.00  0.00     0.114 A 
ATOM      9  NE2 HIS A   1       4.038  -0.236   4.735  1.00  0.00    -0.360 N 
ATOM     10  CE1 HIS A   1       3.273  -1.119   4.028  1.00  0.00     0.180 A 
ATOM     11  HE2 HIS A   1       4.597  -0.454   5.548  1.00  0.00     0.166 HD
ATOM     12  ND1 HIS A   1       2.674  -0.532   3.017  1.00  0.00    -0.354 N 
ATOM     13  HD1 HIS A   1       2.025  -0.955   2.353  1.00  0.00     0.166 HD
ENDBRANCH   6   7
ENDBRANCH   1   6
BRANCH   1  14
ATOM     14  N   HIS A   1       4.653   1.110   0.513  1.00  0.00    -0.346 N 
HETATM   15  C   UNK A   0       5.546   2.127   0.722  1.00  0.00     0.222 C 
HETATM   16  O   UNK A   0       5.178   3.277   0.943  1.00  0.00    -0.273 OA
ATOM     17  H   HIS A   1       4.974   0.176   0.272  1.00  0.00     0.163 HD
BRANCH  15  18
HETATM   18  C   UNK A   0       7.017   1.712   0.605  1.00  0.00     0.078 C 
HETATM   19  C   UNK A   0       7.419   0.608   1.597  1.00  0.00     0.014 C 
HETATM   20  C   UNK A   0       7.664   1.113   3.019  1.00  0.00     0.001 C 
HETATM   21  C   UNK A   0       8.607   2.308   3.064  1.00  0.00     0.000 C 
HETATM   22  C   UNK A   0       8.144   3.422   2.134  1.00  0.00     0.001 C 
HETATM   23  C   UNK A   0       7.961   2.919   0.704  1.00  0.00     0.014 C 
ENDBRANCH  15  18
ENDBRANCH   1  14
TORSDOF 6
