REMARK  4 active torsions:
REMARK  status: ('A' for Active; 'I' for Inactive)
REMARK    1  A    between atoms: N_7  and  C_8 
REMARK    2  A    between atoms: C_8  and  C_9 
REMARK    3  A    between atoms: C_9  and  N_10 
REMARK       I    between atoms: N_10  and  C_11 
REMARK       I    between atoms: C_11  and  N_13 
REMARK    4  A    between atoms: N_13  and  C_14 
ROOT
HETATM    1  N   UNL     1       4.525  -3.777   0.372  1.00  0.00    -0.341 N 
HETATM    2  C   UNL     1       5.178  -4.987   0.183  1.00  0.00     0.322 C 
HETATM    3  O   UNL     1       4.556  -6.018  -0.035  1.00  0.00    -0.247 OA
HETATM    4  N   UNL     1       6.534  -4.859   0.336  1.00  0.00    -0.289 N 
HETATM    5  H   UNL     1       4.971  -2.967  -0.041  1.00  0.00     0.164 HD
HETATM    6  H   UNL     1       6.887  -4.066   0.843  1.00  0.00     0.172 HD
ENDROOT
BRANCH   1   7
HETATM    7  C   UNL     1       3.076  -3.787   0.293  1.00  0.00     0.154 C 
BRANCH   7   8
HETATM    8  C   UNL     1       2.440  -2.401   0.481  1.00  0.00     0.292 C 
BRANCH   8   9
HETATM    9  N   UNL     1       2.881  -1.372  -0.488  1.00  0.00     0.094 N 
HETATM   10  C   UNL     1       2.391  -0.022  -0.110  1.00  0.00     0.219 C 
HETATM   11  C   UNL     1       0.864   0.115   0.034  1.00  0.00     0.043 C 
HETATM   12  C   UNL     1       2.936   1.033  -1.092  1.00  0.00     0.035 C 
HETATM   13  C   UNL     1       2.593   0.707  -2.542  1.00  0.00     0.004 C 
HETATM   14  C   UNL     1       3.046  -0.705  -2.878  1.00  0.00     0.030 C 
HETATM   15  C   UNL     1       2.519  -1.727  -1.871  1.00  0.00     0.273 C 
ENDBRANCH   8   9
ENDBRANCH   7   8
ENDBRANCH   1   7
BRANCH   4  16
HETATM   16  C   UNL     1       7.355  -5.948   0.215  1.00  0.00     0.152 A 
HETATM   17  N   UNL     1       7.120  -7.101  -0.359  1.00  0.00    -0.346 N 
HETATM   18  C   UNL     1       8.205  -7.932  -0.184  1.00  0.00     0.097 A 
ATOM     19  HN  UNL     1       6.265  -7.346  -0.859  1.00  0.00     0.167 HD
HETATM   20  C   UNL     1       9.263  -7.388   0.510  1.00  0.00     0.070 A 
HETATM   21  S   UNL     1       8.899  -5.760   0.924  1.00  0.00    -0.064 SA
ENDBRANCH   4  16
TORSDOF 4
