REMARK  3 active torsions:
REMARK  status: ('A' for Active; 'I' for Inactive)
REMARK       I    between atoms: C_2  and  N_3 
REMARK       I    between atoms: C_2  and  N_10 
REMARK    1  A    between atoms: N_3  and  C_4 
REMARK    2  A    between atoms: C_4  and  C_5 
REMARK    3  A    between atoms: N_10  and  C_11 
ROOT
HETATM    1  O   UNL     1       1.051  -0.015  -0.001  1.00  0.00    -0.247 OA
HETATM    2  C   UNL     1       2.270  -0.165  -0.056  1.00  0.00     0.321 C 
HETATM    3  N   UNL     1       2.916  -0.606  -1.162  1.00  0.00    -0.340 N 
HETATM    4  N   UNL     1       3.029   0.076   1.049  1.00  0.00    -0.295 N 
HETATM    5  H   UNL     1       3.918  -0.420  -1.176  1.00  0.00     0.164 HD
HETATM    6  H   UNL     1       2.477   0.363   1.843  1.00  0.00     0.172 HD
ENDROOT
BRANCH   3   7
HETATM    7  C   UNL     1       2.253  -0.882  -2.417  1.00  0.00     0.156 C 
BRANCH   7   8
HETATM    8  C   UNL     1       3.210  -1.452  -3.465  1.00  0.00     0.139 C 
HETATM    9  C   UNL     1       3.936  -2.729  -3.058  1.00  0.00     0.035 C 
HETATM   10  C   UNL     1       5.326  -2.585  -3.645  1.00  0.00     0.029 C 
HETATM   11  C   UNL     1       5.326  -1.237  -4.334  1.00  0.00     0.168 C 
HETATM   12  O   UNL     1       4.244  -0.498  -3.768  1.00  0.00    -0.384 OA
ENDBRANCH   7   8
ENDBRANCH   3   7
BRANCH   4  13
HETATM   13  C   UNL     1       4.408  -0.077   1.221  1.00  0.00     0.108 A 
HETATM   14  C   UNL     1       4.927   0.143   2.493  1.00  0.00     0.049 A 
HETATM   15  C   UNL     1       6.294  -0.026   2.705  1.00  0.00     0.005 A 
HETATM   16  C   UNL     1       7.106  -0.403   1.644  1.00  0.00     0.017 A 
HETATM   17  C   UNL     1       6.514  -0.590   0.409  1.00  0.00     0.089 A 
HETATM   18  N   UNL     1       5.192  -0.432   0.178  1.00  0.00    -0.352 N 
ATOM     19  HN  UNL     1       4.799  -0.576  -0.752  1.00  0.00     0.166 HD
ENDBRANCH   4  13
TORSDOF 3
