REMARK  5 active torsions:
REMARK  status: ('A' for Active; 'I' for Inactive)
REMARK    1  A    between atoms: C_2  and  N_3 
REMARK    2  A    between atoms: C_2  and  C_7 
REMARK       I    between atoms: N_3  and  C_4 
REMARK       I    between atoms: C_4  and  N_6 
REMARK       I    between atoms: C_7  and  N_9 
REMARK    3  A    between atoms: N_9  and  C_10 
REMARK    4  A    between atoms: C_10  and  C_11 
REMARK    5  A    between atoms: C_14  and  N_18 
ROOT
HETATM    1  C   UNL     1       6.628   2.233   1.922  1.00  0.00    -0.025 A 
HETATM    2  C   UNL     1       7.273   3.288   2.554  1.00  0.00     0.014 A 
HETATM    3  C   UNL     1       8.663   3.394   2.478  1.00  0.00     0.049 A 
HETATM    4  C   UNL     1       9.416   2.469   1.750  1.00  0.00     0.103 A 
HETATM    5  N   UNL     1       8.790   1.442   1.136  1.00  0.00    -0.352 N 
ATOM      6  HN  UNL     1       9.324   0.748   0.613  1.00  0.00     0.166 HD
HETATM    7  C   UNL     1       7.437   1.348   1.226  1.00  0.00     0.098 A 
ENDROOT
BRANCH   1   8
HETATM    8  C   UNL     1       5.139   2.074   1.987  1.00  0.00     0.162 C 
BRANCH   8   9
HETATM    9  N   UNL     1       4.467   2.833   0.962  1.00  0.00    -0.355 N 
HETATM   10  C   UNL     1       3.099   2.791   0.829  1.00  0.00     0.240 C 
HETATM   11  O   UNL     1       2.369   2.230   1.643  1.00  0.00    -0.271 OA
HETATM   12  H   UNL     1       5.014   3.185   0.172  1.00  0.00     0.162 HD
BRANCH  10  13
HETATM   13  C   UNL     1       2.521   3.507  -0.413  1.00  0.00     0.174 C 
HETATM   14  C   UNL     1       2.761   5.012  -0.385  1.00  0.00     0.042 C 
BRANCH  13  15
HETATM   15  N   UNL     1       2.945   2.856  -1.655  1.00  0.00    -0.330 N 
HETATM   16  C   UNL     1       4.221   2.889  -2.116  1.00  0.00     0.314 C 
HETATM   17  O   UNL     1       5.144   3.509  -1.607  1.00  0.00    -0.248 OA
HETATM   18  N   UNL     1       4.413   2.093  -3.192  1.00  0.00    -0.352 N 
HETATM   19  H   UNL     1       3.662   2.030  -3.870  1.00  0.00     0.160 HD
HETATM   20  H   UNL     1       5.341   2.167  -3.591  1.00  0.00     0.160 HD
HETATM   21  H   UNL     1       2.424   2.031  -1.918  1.00  0.00     0.165 HD
ENDBRANCH  13  15
ENDBRANCH  10  13
ENDBRANCH   8   9
ENDBRANCH   1   8
BRANCH   4  22
HETATM   22  N   UNL     1      10.795   2.553   1.696  1.00  0.00    -0.362 N 
HETATM   23  C   UNL     1      11.508   3.837   1.731  1.00  0.00     0.156 C 
HETATM   24  C   UNL     1      12.164   4.138   0.367  1.00  0.00     0.136 C 
HETATM   25  C   UNL     1      13.029   5.389   0.456  1.00  0.00     0.041 C 
HETATM   26  O   UNL     1      13.012   3.054  -0.050  1.00  0.00    -0.378 OA
HETATM   27  C   UNL     1      12.244   1.842  -0.197  1.00  0.00     0.136 C 
HETATM   28  C   UNL     1      13.210   0.765  -0.676  1.00  0.00     0.041 C 
HETATM   29  C   UNL     1      11.581   1.440   1.138  1.00  0.00     0.156 C 
ENDBRANCH   4  22
TORSDOF 5
