REMARK  5 active torsions:
REMARK  status: ('A' for Active; 'I' for Inactive)
REMARK    1  A    between atoms: C_2  and  C_3 
REMARK    2  A    between atoms: C_2  and  N_15 
REMARK    3  A    between atoms: C_3  and  N_4 
REMARK       I    between atoms: N_4  and  C_5 
REMARK    4  A    between atoms: C_5  and  C_7 
REMARK    5  A    between atoms: C_7  and  N_8 
ROOT
HETATM    1  N   UNL     1       2.583  -2.613   0.455  1.00  0.00    -0.358 N 
HETATM    2  C   UNL     1       2.525  -3.902  -0.028  1.00  0.00     0.235 C 
HETATM    3  O   UNL     1       2.726  -4.177  -1.211  1.00  0.00    -0.272 OA
HETATM    4  H   UNL     1       2.369  -2.403   1.425  1.00  0.00     0.162 HD
ENDROOT
BRANCH   1   5
HETATM    5  C   UNL     1       2.938  -1.502  -0.404  1.00  0.00     0.158 C 
BRANCH   5   6
HETATM    6  C   UNL     1       2.384  -0.146   0.106  1.00  0.00     0.236 C 
HETATM    7  C   UNL     1       2.662   0.919  -0.961  1.00  0.00     0.044 C 
BRANCH   6   8
HETATM    8  N   UNL     1       2.760   0.160   1.507  1.00  0.00     0.098 N 
HETATM    9  C   UNL     1       2.130   1.374   2.064  1.00  0.00     0.299 C 
HETATM   10  C   UNL     1       2.895   2.681   1.786  1.00  0.00     0.198 C 
HETATM   11  O   UNL     1       4.257   2.596   2.220  1.00  0.00    -0.388 OA
HETATM   12  C   UNL     1       4.928   1.490   1.604  1.00  0.00     0.198 C 
HETATM   13  C   UNL     1       4.192   0.165   1.857  1.00  0.00     0.299 C 
ENDBRANCH   6   8
ENDBRANCH   5   6
ENDBRANCH   1   5
BRANCH   2  14
HETATM   14  C   UNL     1       2.192  -4.972   1.012  1.00  0.00     0.234 C 
BRANCH  14  15
HETATM   15  N   UNL     1       0.966  -5.681   0.660  1.00  0.00    -0.316 N 
HETATM   16  C   UNL     1       1.022  -6.790  -0.168  1.00  0.00     0.095 A 
HETATM   17  C   UNL     1      -0.091  -7.444  -0.523  1.00  0.00     0.017 A 
HETATM   18  C   UNL     1      -1.375  -6.989  -0.052  1.00  0.00     0.007 A 
HETATM   19  C   UNL     1      -1.463  -5.909   0.736  1.00  0.00     0.074 A 
HETATM   20  C   UNL     1      -0.238  -5.164   1.131  1.00  0.00     0.247 A 
HETATM   21  O   UNL     1      -0.337  -4.174   1.849  1.00  0.00    -0.268 OA
ENDBRANCH  14  15
ENDBRANCH   2  14
TORSDOF 5
