REMARK  7 active torsions:
REMARK  status: ('A' for Active; 'I' for Inactive)
REMARK    1  A    between atoms: C_2  and  O_3 
REMARK    2  A    between atoms: O_3  and  C_4 
REMARK    3  A    between atoms: C_4  and  C_5 
REMARK    4  A    between atoms: C_5  and  N_6 
REMARK    5  A    between atoms: C_7  and  C_16 
REMARK    6  A    between atoms: C_16  and  N_18 
REMARK       I    between atoms: N_18  and  C_19 
REMARK    7  A    between atoms: C_19  and  C_21 
ROOT
HETATM    1  N   UNL     1       6.336   1.111   2.478  1.00  0.00    -0.331 N 
HETATM    2  C   UNL     1       7.086   2.274   2.418  1.00  0.00     0.107 A 
HETATM    3  N   UNL     1       8.377   1.986   2.363  1.00  0.00    -0.342 N 
ATOM      4  HN  UNL     1       9.150   2.649   2.309  1.00  0.00     0.167 HD
HETATM    5  C   UNL     1       8.468   0.620   2.393  1.00  0.00     0.060 A 
HETATM    6  C   UNL     1       9.607  -0.200   2.391  1.00  0.00     0.032 A 
HETATM    7  C   UNL     1       9.442  -1.591   2.409  1.00  0.00     0.002 A 
HETATM    8  C   UNL     1       8.168  -2.155   2.412  1.00  0.00     0.002 A 
HETATM    9  C   UNL     1       7.023  -1.352   2.406  1.00  0.00     0.032 A 
HETATM   10  C   UNL     1       7.207   0.039   2.420  1.00  0.00     0.062 A 
ENDROOT
BRANCH   2  11
HETATM   11  C   UNL     1       6.535   3.679   2.399  1.00  0.00     0.148 C 
HETATM   12  C   UNL     1       7.075   4.489   3.577  1.00  0.00     0.040 C 
BRANCH  11  13
HETATM   13  N   UNL     1       6.930   4.285   1.140  1.00  0.00    -0.344 N 
HETATM   14  C   UNL     1       6.212   5.301   0.547  1.00  0.00     0.276 C 
HETATM   15  O   UNL     1       5.128   5.678   0.989  1.00  0.00    -0.265 OA
HETATM   16  H   UNL     1       7.862   4.090   0.791  1.00  0.00     0.163 HD
BRANCH  14  17
HETATM   17  C   UNL     1       6.830   5.876  -0.632  1.00  0.00     0.142 A 
HETATM   18  C   UNL     1       6.400   6.880  -1.483  1.00  0.00     0.045 A 
HETATM   19  C   UNL     1       7.393   7.024  -2.482  1.00  0.00     0.027 A 
HETATM   20  C   UNL     1       8.373   6.108  -2.179  1.00  0.00     0.143 A 
HETATM   21  O   UNL     1       8.046   5.408  -1.062  1.00  0.00    -0.317 OA
ENDBRANCH  14  17
ENDBRANCH  11  13
ENDBRANCH   2  11
BRANCH   1  22
HETATM   22  C   UNL     1       4.889   0.979   2.553  1.00  0.00     0.156 C 
BRANCH  22  23
HETATM   23  C   UNL     1       4.397   0.299   3.832  1.00  0.00     0.187 C 
BRANCH  23  24
HETATM   24  O   UNL     1       4.677   1.115   4.969  1.00  0.00    -0.390 OA
BRANCH  24  25
HETATM   25  C   UNL     1       4.350   0.441   6.185  1.00  0.00     0.163 C 
HETATM   26  C   UNL     1       4.741   1.329   7.348  1.00  0.00     0.033 C 
ENDBRANCH  24  25
ENDBRANCH  23  24
ENDBRANCH  22  23
ENDBRANCH   1  22
TORSDOF 7
