REMARK  3 active torsions:
REMARK  status: ('A' for Active; 'I' for Inactive)
REMARK    1  A    between atoms: N_1  and  C_8 
REMARK    2  A    between atoms: N_2  and  C_7 
REMARK    3  A    between atoms: C_8  and  C_15 
ROOT
HETATM    1  N   UNL     1      -5.488   2.737  -4.451  1.00  0.00    -0.191 NA
HETATM    2  C   UNL     1      -4.476   2.914  -3.910  1.00  0.00     0.099 C 
HETATM    3  C   UNL     1      -1.783   2.914  -1.294  1.00  0.00    -0.038 A 
HETATM    4  C   UNL     1      -3.227   3.160  -3.247  1.00  0.00     0.045 A 
HETATM    5  C   UNL     1      -2.975   2.615  -1.973  1.00  0.00     0.031 A 
HETATM    6  C   UNL     1      -1.084   4.273  -3.192  1.00  0.00     0.002 A 
HETATM    7  C   UNL     1      -0.847   3.759  -1.915  1.00  0.00     0.009 A 
HETATM    8  C   UNL     1      -2.269   3.971  -3.857  1.00  0.00     0.022 A 
ENDROOT
BRANCH   3   9
HETATM    9  C   UNL     1      -1.499   2.350   0.092  1.00  0.00     0.175 C 
BRANCH   9  10
HETATM   10  N   UNL     1      -0.712   1.121   0.054  1.00  0.00    -0.259 N 
HETATM   11  C   UNL     1      -1.360  -0.083   0.325  1.00  0.00     0.334 C 
HETATM   12  N   UNL     1      -0.606  -1.245   0.125  1.00  0.00    -0.279 N 
HETATM   13  O   UNL     1      -2.525  -0.128   0.723  1.00  0.00    -0.246 OA
HETATM   14  C   UNL     1       0.755  -1.194  -0.095  1.00  0.00     0.146 C 
HETATM   15  C   UNL     1       1.403  -0.037  -0.169  1.00  0.00     0.200 C 
HETATM   16  C   UNL     1       0.668   1.237  -0.062  1.00  0.00     0.292 C 
HETATM   17  F   UNL     1       2.737   0.030  -0.336  1.00  0.00    -0.199 F 
HETATM   18  O   UNL     1       1.279   2.303  -0.058  1.00  0.00    -0.264 OA
BRANCH  12  19
HETATM   19  C   UNL     1      -1.307  -2.521   0.265  1.00  0.00     0.232 C 
HETATM   20  O   UNL     1      -0.438  -3.646   0.024  1.00  0.00    -0.366 OA
HETATM   21  C   UNL     1      -1.201  -4.683  -0.615  1.00  0.00     0.170 C 
HETATM   22  C   UNL     1      -2.624  -4.188  -0.750  1.00  0.00     0.031 C 
HETATM   23  C   UNL     1      -2.452  -2.694  -0.726  1.00  0.00     0.056 C 
ENDBRANCH  12  19
ENDBRANCH   9  10
ENDBRANCH   3   9
TORSDOF 3
