REMARK  3 active torsions:
REMARK  status: ('A' for Active; 'I' for Inactive)
REMARK    1  A    between atoms: C_6  and  N_7 
REMARK       I    between atoms: N_7  and  C_8 
REMARK       I    between atoms: C_8  and  N_10 
REMARK    2  A    between atoms: N_10  and  C_11 
REMARK    3  A    between atoms: C_11  and  C_12 
ROOT
HETATM    1  N   UNL     1       5.092  -2.485  -0.129  1.00  0.00    -0.304 N 
HETATM    2  C   UNL     1       4.447  -3.650  -0.460  1.00  0.00     0.320 C 
HETATM    3  O   UNL     1       3.253  -3.746  -0.737  1.00  0.00    -0.247 OA
HETATM    4  N   UNL     1       5.287  -4.734  -0.482  1.00  0.00    -0.340 N 
HETATM    5  H   UNL     1       6.094  -2.455  -0.278  1.00  0.00     0.171 HD
HETATM    6  H   UNL     1       6.123  -4.715   0.086  1.00  0.00     0.164 HD
ENDROOT
BRANCH   1   7
HETATM    7  C   UNL     1       4.498  -1.250   0.065  1.00  0.00     0.105 A 
HETATM    8  C   UNL     1       3.194  -1.053   0.307  1.00  0.00     0.037 A 
HETATM    9  C   UNL     1       2.653   0.264   0.529  1.00  0.00     0.020 A 
HETATM   10  C   UNL     1       3.463   1.325   0.548  1.00  0.00     0.094 A 
HETATM   11  N   UNL     1       4.821   1.192   0.328  1.00  0.00    -0.327 N 
HETATM   12  C   UNL     1       5.670   2.368   0.361  1.00  0.00     0.159 C 
HETATM   13  C   UNL     1       5.410  -0.041   0.027  1.00  0.00     0.274 A 
HETATM   14  O   UNL     1       6.601  -0.189  -0.251  1.00  0.00    -0.266 OA
ENDBRANCH   1   7
BRANCH   4  15
HETATM   15  C   UNL     1       4.812  -6.040  -0.914  1.00  0.00     0.156 C 
BRANCH  15  16
HETATM   16  C   UNL     1       4.810  -7.094   0.193  1.00  0.00     0.139 C 
HETATM   17  C   UNL     1       3.970  -6.781   1.422  1.00  0.00     0.035 C 
HETATM   18  C   UNL     1       4.740  -7.406   2.570  1.00  0.00     0.029 C 
HETATM   19  C   UNL     1       5.991  -7.980   1.939  1.00  0.00     0.168 C 
HETATM   20  O   UNL     1       6.145  -7.303   0.689  1.00  0.00    -0.384 OA
ENDBRANCH  15  16
ENDBRANCH   4  15
TORSDOF 3
