REMARK  5 active torsions:
REMARK  status: ('A' for Active; 'I' for Inactive)
REMARK    1  A    between atoms: O_2  and  C_3 
REMARK    2  A    between atoms: C_3  and  C_5 
REMARK       I    between atoms: C_5  and  N_7 
REMARK    3  A    between atoms: N_7  and  C_8 
REMARK    4  A    between atoms: C_11  and  O_12 
REMARK    5  A    between atoms: C_16  and  N_17 
REMARK       I    between atoms: N_20  and  C_23 
ROOT
HETATM    1  C   UNL     1       6.484   2.039   1.473  1.00  0.00     0.079 A 
HETATM    2  C   UNL     1       7.254   3.091   0.958  1.00  0.00     0.038 A 
HETATM    3  C   UNL     1       8.618   3.108   1.155  1.00  0.00     0.058 A 
HETATM    4  C   UNL     1       9.174   2.053   1.838  1.00  0.00     0.143 A 
HETATM    5  N   UNL     1       8.463   1.027   2.380  1.00  0.00    -0.321 N 
ATOM      6  HN  UNL     1       8.935   0.287   2.900  1.00  0.00     0.169 HD
HETATM    7  C   UNL     1       7.110   1.003   2.217  1.00  0.00     0.132 A 
ENDROOT
BRANCH   7   8
HETATM    8  N   UNL     1       6.432  -0.076   2.771  1.00  0.00    -0.362 N 
HETATM    9  C   UNL     1       7.049  -0.834   3.883  1.00  0.00     0.144 C 
HETATM   10  C   UNL     1       7.091  -2.362   3.634  1.00  0.00     0.145 C 
HETATM   11  N   UNL     1       5.835  -2.884   3.070  1.00  0.00    -0.349 N 
HETATM   12  C   UNL     1       5.413  -2.148   1.881  1.00  0.00     0.145 C 
HETATM   13  C   UNL     1       5.026  -3.896   3.540  1.00  0.00     0.215 C 
HETATM   14  C   UNL     1       5.209  -0.664   2.209  1.00  0.00     0.144 C 
HETATM   15  O   UNL     1       3.958  -4.180   2.984  1.00  0.00    -0.274 OA
HETATM   16  C   UNL     1       5.428  -4.696   4.751  1.00  0.00     0.117 C 
ENDBRANCH   7   8
BRANCH   1  17
HETATM   17  N   UNL     1       5.086   2.149   1.305  1.00  0.00    -0.322 N 
HETATM   18  C   UNL     1       4.496   2.452   0.084  1.00  0.00     0.251 C 
HETATM   19  O   UNL     1       5.118   2.594  -0.969  1.00  0.00    -0.270 OA
HETATM   20  H   UNL     1       4.485   1.801   2.041  1.00  0.00     0.169 HD
BRANCH  18  21
HETATM   21  C   UNL     1       2.956   2.458   0.128  1.00  0.00     0.208 C 
HETATM   22  C   UNL     1       2.405   3.287  -1.033  1.00  0.00     0.049 C 
BRANCH  21  23
HETATM   23  O   UNL     1       2.537   2.940   1.408  1.00  0.00    -0.382 OA
HETATM   24  C   UNL     1       1.128   2.951   1.591  1.00  0.00     0.202 C 
ENDBRANCH  21  23
ENDBRANCH  18  21
ENDBRANCH   1  17
BRANCH   4  25
HETATM   25  O   UNL     1      10.550   2.108   1.962  1.00  0.00    -0.341 OA
HETATM   26  C   UNL     1      11.132   0.903   2.433  1.00  0.00     0.211 C 
ENDBRANCH   4  25
TORSDOF 5
