REMARK  6 active torsions:
REMARK  status: ('A' for Active; 'I' for Inactive)
REMARK    1  A    between atoms: C_2  and  S_5 
REMARK    2  A    between atoms: S_5  and  C_6 
REMARK    3  A    between atoms: C_6  and  C_7 
REMARK       I    between atoms: C_7  and  N_9 
REMARK    4  A    between atoms: N_9  and  C_10 
REMARK    5  A    between atoms: C_10  and  C_11 
REMARK    6  A    between atoms: C_16  and  N_18 
ROOT
HETATM    1  C   UNL     1       8.877   2.670  -3.778  1.00  0.00    -0.036 A 
HETATM    2  C   UNL     1       9.631   1.727  -4.466  1.00  0.00     0.026 A 
HETATM    3  C   UNL     1      11.011   1.782  -4.341  1.00  0.00     0.090 A 
HETATM    4  N   UNL     1      11.677   2.680  -3.576  1.00  0.00    -0.352 N 
ATOM      5  HN  UNL     1      12.696   2.678  -3.531  1.00  0.00     0.166 HD
HETATM    6  C   UNL     1      10.952   3.576  -2.876  1.00  0.00     0.103 A 
HETATM    7  C   UNL     1       9.557   3.593  -2.977  1.00  0.00     0.057 A 
ENDROOT
BRANCH   1   8
HETATM    8  C   UNL     1       7.379   2.710  -3.859  1.00  0.00     0.161 C 
BRANCH   8   9
HETATM    9  N   UNL     1       6.771   1.893  -2.836  1.00  0.00    -0.356 N 
HETATM   10  C   UNL     1       5.406   1.915  -2.650  1.00  0.00     0.227 C 
HETATM   11  O   UNL     1       4.643   2.534  -3.391  1.00  0.00    -0.273 OA
HETATM   12  H   UNL     1       7.347   1.542  -2.080  1.00  0.00     0.162 HD
BRANCH  10  13
HETATM   13  C   UNL     1       4.899   1.056  -1.504  1.00  0.00     0.177 C 
BRANCH  13  14
HETATM   14  S   UNL     1       5.507   1.687   0.101  1.00  0.00    -0.151 SA
BRANCH  14  15
HETATM   15  C   UNL     1       4.781   0.460   1.290  1.00  0.00    -0.003 C 
HETATM   16  C   UNL     1       5.312  -0.947   0.993  1.00  0.00     0.026 C 
HETATM   17  C   UNL     1       3.248   0.478   1.245  1.00  0.00     0.026 C 
HETATM   18  C   UNL     1       5.239   0.878   2.698  1.00  0.00     0.026 C 
ENDBRANCH  14  15
ENDBRANCH  13  14
ENDBRANCH  10  13
ENDBRANCH   8   9
ENDBRANCH   1   8
BRANCH   6  19
HETATM   19  N   UNL     1      11.582   4.517  -2.081  1.00  0.00    -0.363 N 
HETATM   20  C   UNL     1      12.980   4.883  -2.338  1.00  0.00     0.150 C 
HETATM   21  C   UNL     1      13.922   4.430  -1.212  1.00  0.00     0.187 C 
HETATM   22  O   UNL     1      13.430   4.805   0.087  1.00  0.00    -0.388 OA
HETATM   23  C   UNL     1      12.149   4.201   0.309  1.00  0.00     0.187 C 
HETATM   24  C   UNL     1      11.111   4.707  -0.702  1.00  0.00     0.150 C 
ENDBRANCH   6  19
TORSDOF 6
