REMARK  5 active torsions:
REMARK  status: ('A' for Active; 'I' for Inactive)
REMARK    1  A    between atoms: C_2  and  C_3 
REMARK    2  A    between atoms: C_2  and  C_17 
REMARK    3  A    between atoms: C_3  and  N_4 
REMARK       I    between atoms: N_4  and  C_5 
REMARK       I    between atoms: C_5  and  N_7 
REMARK    4  A    between atoms: N_7  and  C_8 
REMARK    5  A    between atoms: C_17  and  N_18 
ROOT
HETATM    1  N   UNL     1       2.437  -1.430   2.149  1.00  0.00    -0.342 N 
HETATM    2  C   UNL     1       3.065  -0.884   3.226  1.00  0.00     0.321 C 
HETATM    3  O   UNL     1       4.134  -0.282   3.160  1.00  0.00    -0.247 OA
HETATM    4  N   UNL     1       2.475  -1.122   4.439  1.00  0.00    -0.295 N 
HETATM    5  H   UNL     1       1.476  -1.717   2.327  1.00  0.00     0.164 HD
HETATM    6  H   UNL     1       3.047  -0.867   5.229  1.00  0.00     0.172 HD
ENDROOT
BRANCH   1   7
HETATM    7  C   UNL     1       2.871  -1.334   0.783  1.00  0.00     0.130 C 
BRANCH   7   8
HETATM    8  C   UNL     1       2.317  -0.089   0.077  1.00  0.00     0.028 C 
HETATM    9  C   UNL     1       0.785  -0.110  -0.007  1.00  0.00     0.013 C 
BRANCH   8  10
HETATM   10  C   UNL     1       2.957  -0.015  -1.325  1.00  0.00     0.278 C 
BRANCH  10  11
HETATM   11  N   UNL     1       2.587   1.171  -2.120  1.00  0.00     0.092 N 
HETATM   12  C   UNL     1       3.193   1.089  -3.470  1.00  0.00     0.302 C 
HETATM   13  C   UNL     1       4.725   1.321  -3.503  1.00  0.00     0.302 C 
HETATM   14  N   UNL     1       5.182   2.558  -2.837  1.00  0.00     0.087 N 
HETATM   15  C   UNL     1       4.888   3.735  -3.654  1.00  0.00     0.310 C 
HETATM   16  C   UNL     1       4.554   2.668  -1.504  1.00  0.00     0.302 C 
HETATM   17  C   UNL     1       3.023   2.438  -1.493  1.00  0.00     0.302 C 
ENDBRANCH  10  11
ENDBRANCH   8  10
ENDBRANCH   7   8
ENDBRANCH   1   7
BRANCH   4  18
HETATM   18  C   UNL     1       1.227  -1.714   4.665  1.00  0.00     0.109 A 
HETATM   19  C   UNL     1       0.912  -2.167   5.936  1.00  0.00     0.055 A 
HETATM   20  C   UNL     1      -0.310  -2.821   6.129  1.00  0.00    -0.057 A 
HETATM   21  C   UNL     1      -0.671  -3.417   7.455  1.00  0.00     0.048 C 
HETATM   22  C   UNL     1      -1.190  -2.947   5.050  1.00  0.00     0.031 A 
HETATM   23  C   UNL     1      -0.818  -2.435   3.817  1.00  0.00     0.007 A 
HETATM   24  C   UNL     1      -1.714  -2.501   2.620  1.00  0.00     0.068 C 
HETATM   25  N   UNL     1       0.376  -1.843   3.622  1.00  0.00    -0.346 N 
ATOM     26  HN  UNL     1       0.635  -1.496   2.699  1.00  0.00     0.167 HD
ENDBRANCH   4  18
TORSDOF 5
