REMARK  5 active torsions:
REMARK  status: ('A' for Active; 'I' for Inactive)
REMARK    1  A    between atoms: C_2  and  C_3 
REMARK    2  A    between atoms: C_3  and  C_4 
REMARK    3  A    between atoms: C_4  and  N_5 
REMARK       I    between atoms: N_5  and  C_6 
REMARK       I    between atoms: C_6  and  N_8 
REMARK    4  A    between atoms: N_8  and  C_9 
REMARK    5  A    between atoms: C_16  and  N_17 
ROOT
HETATM    1  N   UNL     1       4.756   0.383  -2.750  1.00  0.00    -0.342 N 
HETATM    2  C   UNL     1       5.734  -0.485  -3.195  1.00  0.00     0.320 C 
HETATM    3  O   UNL     1       5.879  -1.583  -2.666  1.00  0.00    -0.247 OA
HETATM    4  N   UNL     1       6.497  -0.006  -4.231  1.00  0.00    -0.305 N 
HETATM    5  H   UNL     1       4.948   1.369  -2.829  1.00  0.00     0.164 HD
HETATM    6  H   UNL     1       6.336   0.926  -4.582  1.00  0.00     0.171 HD
ENDROOT
BRANCH   4   7
HETATM    7  C   UNL     1       7.562  -0.732  -4.848  1.00  0.00     0.090 A 
HETATM    8  C   UNL     1       7.743  -2.097  -4.668  1.00  0.00     0.121 A 
HETATM    9  N   UNL     1       8.706  -2.838  -5.258  1.00  0.00    -0.360 N 
HETATM   10  C   UNL     1       9.517  -2.158  -6.063  1.00  0.00     0.181 A 
ATOM     11  HN  UNL     1       8.803  -3.841  -5.099  1.00  0.00     0.166 HD
HETATM   12  N   UNL     1       9.450  -0.848  -6.326  1.00  0.00    -0.341 N 
HETATM   13  C   UNL     1       8.467  -0.122  -5.730  1.00  0.00     0.111 A 
ATOM     14  HN  UNL     1      10.118  -0.406  -6.957  1.00  0.00     0.167 HD
BRANCH  13  15
HETATM   15  N   UNL     1       8.352   1.237  -6.094  1.00  0.00    -0.276 NA
HETATM   16  C   UNL     1       9.117   1.595  -7.300  1.00  0.00     0.118 C 
HETATM   17  C   UNL     1       8.485   2.212  -5.009  1.00  0.00     0.118 C 
ENDBRANCH  13  15
ENDBRANCH   4   7
BRANCH   1  18
HETATM   18  C   UNL     1       4.047  -0.080  -1.572  1.00  0.00     0.133 C 
BRANCH  18  19
HETATM   19  C   UNL     1       2.976   0.816  -0.993  1.00  0.00    -0.025 A 
HETATM   20  C   UNL     1       3.162   2.320  -0.933  1.00  0.00     0.012 A 
HETATM   21  C   UNL     1       2.174   1.727  -1.902  1.00  0.00     0.012 A 
BRANCH  19  22
HETATM   22  C   UNL     1       2.232   0.164   0.172  1.00  0.00     0.006 C 
HETATM   23  C   UNL     1       3.150  -0.166   1.344  1.00  0.00     0.006 C 
ENDBRANCH  19  22
ENDBRANCH  18  19
ENDBRANCH   1  18
TORSDOF 5
