REMARK  4 active torsions:
REMARK  status: ('A' for Active; 'I' for Inactive)
REMARK    1  A    between atoms: C_2  and  S_3 
REMARK    2  A    between atoms: S_3  and  C_4 
REMARK    3  A    between atoms: C_8  and  N_9 
REMARK       I    between atoms: N_9  and  C_10 
REMARK       I    between atoms: C_10  and  N_12 
REMARK    4  A    between atoms: N_12  and  C_13 
ROOT
HETATM    1  N   UNL     1       4.434  -0.302   1.885  1.00  0.00    -0.342 N 
HETATM    2  C   UNL     1       3.913   0.913   2.298  1.00  0.00     0.300 C 
HETATM    3  O   UNL     1       4.143   1.967   1.721  1.00  0.00    -0.254 OA
HETATM    4  N   UNL     1       3.060   0.731   3.362  1.00  0.00    -0.196 NA
HETATM    5  H   UNL     1       4.395  -1.075   2.536  1.00  0.00     0.164 HD
HETATM    6  H   UNL     1       2.579  -0.154   3.305  1.00  0.00     0.139 HD
ENDROOT
BRANCH   1   7
HETATM    7  C   UNL     1       5.199  -0.455   0.654  1.00  0.00     0.099 C 
HETATM    8  C   UNL     1       4.715  -1.601  -0.262  1.00  0.00     0.070 C 
HETATM    9  C   UNL     1       5.356  -2.866   0.326  1.00  0.00     0.017 C 
HETATM   10  C   UNL     1       6.599  -2.400   1.082  1.00  0.00     0.003 C 
HETATM   11  C   UNL     1       6.641  -0.879   0.949  1.00  0.00     0.026 C 
BRANCH   8  12
HETATM   12  S   UNL     1       2.917  -1.873  -0.454  1.00  0.00    -0.163 SA
BRANCH  12  13
HETATM   13  C   UNL     1       2.373  -0.292  -1.181  1.00  0.00     0.070 C 
HETATM   14  C   UNL     1       3.098   0.086  -2.460  1.00  0.00     0.016 C 
ENDBRANCH  12  13
ENDBRANCH   8  12
ENDBRANCH   1   7
BRANCH   4  15
HETATM   15  C   UNL     1       2.157   1.703   3.813  1.00  0.00     0.094 A 
HETATM   16  N   UNL     1       0.898   1.206   3.879  1.00  0.00    -0.356 N 
HETATM   17  C   UNL     1      -0.091   2.038   4.262  1.00  0.00     0.089 A 
ATOM     18  HN  UNL     1       0.705   0.232   3.646  1.00  0.00     0.166 HD
HETATM   19  C   UNL     1       0.118   3.345   4.647  1.00  0.00     0.018 A 
HETATM   20  C   UNL     1       1.421   3.825   4.637  1.00  0.00     0.011 A 
HETATM   21  C   UNL     1       2.483   2.997   4.218  1.00  0.00    -0.023 A 
HETATM   22  C   UNL     1       3.872   3.557   4.255  1.00  0.00     0.052 C 
ENDBRANCH   4  15
TORSDOF 4
