REMARK  4 active torsions:
REMARK  status: ('A' for Active; 'I' for Inactive)
REMARK    1  A    between atoms: C_2  and  C_3 
REMARK       I    between atoms: C_2  and  N_11 
REMARK    2  A    between atoms: C_3  and  N_4 
REMARK    3  A    between atoms: N_11  and  C_12 
REMARK    4  A    between atoms: C_12  and  C_13 
ROOT
HETATM    1  O   UNL     1       2.700   0.928  -0.623  1.00  0.00    -0.272 OA
HETATM    2  C   UNL     1       2.209   0.057   0.092  1.00  0.00     0.237 C 
HETATM    3  N   UNL     1       2.957  -0.936   0.683  1.00  0.00    -0.359 N 
HETATM    4  H   UNL     1       2.458  -1.672   1.172  1.00  0.00     0.162 HD
ENDROOT
BRANCH   2   5
HETATM    5  C   UNL     1       0.697  -0.096   0.235  1.00  0.00     0.255 C 
BRANCH   5   6
HETATM    6  N   UNL     1       0.306  -0.756   1.469  1.00  0.00    -0.243 N 
HETATM    7  N   UNL     1       0.201  -2.127   1.524  1.00  0.00    -0.299 N 
HETATM    8  C   UNL     1      -0.233  -2.470   2.693  1.00  0.00     0.162 A 
ATOM      9  HN  UNL     1       0.429  -2.769   0.765  1.00  0.00     0.187 HD
HETATM   10  S   UNL     1      -0.517  -1.189   3.836  1.00  0.00    -0.021 SA
HETATM   11  C   UNL     1      -0.021  -0.050   2.606  1.00  0.00     0.306 A 
HETATM   12  O   UNL     1       0.001   1.157   2.777  1.00  0.00    -0.258 OA
ENDBRANCH   5   6
ENDBRANCH   2   5
BRANCH   3  13
HETATM   13  C   UNL     1       4.398  -0.969   0.624  1.00  0.00     0.127 C 
BRANCH  13  14
HETATM   14  C   UNL     1       4.945  -0.944   2.016  1.00  0.00     0.003 A 
HETATM   15  C   UNL     1       4.728   0.261   2.899  1.00  0.00     0.007 A 
HETATM   16  C   UNL     1       6.101  -0.040   2.370  1.00  0.00     0.007 A 
ENDBRANCH  13  14
ENDBRANCH   3  13
TORSDOF 4
