REMARK  8 active torsions:
REMARK  status: ('A' for Active; 'I' for Inactive)
REMARK    1  A    between atoms: N_1  and  C_10 
REMARK    2  A    between atoms: N_4  and  C_7 
REMARK    3  A    between atoms: C_8  and  C_18 
REMARK    4  A    between atoms: C_8  and  O_22 
REMARK    5  A    between atoms: C_17  and  C_25 
REMARK    6  A    between atoms: C_17  and  C_26 
REMARK    7  A    between atoms: C_25  and  O_27 
REMARK    8  A    between atoms: C_26  and  O_28 
ROOT
HETATM    1  N   UNL     1       1.591   1.115   0.007  1.00  0.00    -0.322 N 
HETATM    2  C   UNL     1       0.385  -0.698   0.065  1.00  0.00     0.122 A 
HETATM    3  C   UNL     1       0.283   0.692   0.028  1.00  0.00     0.140 A 
HETATM    4  N   UNL     1       1.702  -1.110   0.038  1.00  0.00    -0.346 N 
ATOM      5  HN  UNL     1       2.059  -2.065   0.045  1.00  0.00     0.167 HD
HETATM    6  C   UNL     1      -0.801  -1.458   0.134  1.00  0.00     0.135 A 
HETATM    7  C   UNL     1       2.388   0.003   0.002  1.00  0.00     0.185 A 
HETATM    8  N   UNL     1      -0.857   1.404   0.028  1.00  0.00    -0.336 N 
ATOM      9  HN  UNL     1      -0.905   2.423   0.001  1.00  0.00     0.168 HD
HETATM   10  N   UNL     1      -1.977  -0.771   0.133  1.00  0.00    -0.337 N 
ATOM     11  HN  UNL     1      -2.869  -1.264   0.179  1.00  0.00     0.168 HD
HETATM   12  C   UNL     1      -1.935   0.583   0.069  1.00  0.00     0.183 A 
ENDROOT
BRANCH   1  13
HETATM   13  C   UNL     1       2.198   2.410   0.047  1.00  0.00     0.094 C 
HETATM   14  C   UNL     1       1.742   3.331   1.211  1.00  0.00     0.039 C 
HETATM   15  C   UNL     1       2.072   4.537   0.254  1.00  0.00     0.006 C 
HETATM   16  C   UNL     1       1.646   3.527  -0.882  1.00  0.00     0.039 C 
BRANCH  15  17
HETATM   17  C   UNL     1       1.165   5.757   0.388  1.00  0.00     0.175 C 
BRANCH  17  18
HETATM   18  O   UNL     1       1.364   6.355   1.668  1.00  0.00    -0.400 OA
HETATM   19  H   UNL     1       0.878   5.811   2.314  1.00  0.00     0.209 HD
ENDBRANCH  17  18
ENDBRANCH  15  17
BRANCH  15  20
HETATM   20  C   UNL     1       3.553   4.967   0.190  1.00  0.00     0.175 C 
BRANCH  20  21
HETATM   21  O   UNL     1       4.007   5.360   1.480  1.00  0.00    -0.400 OA
HETATM   22  H   UNL     1       3.448   6.115   1.753  1.00  0.00     0.209 HD
ENDBRANCH  20  21
ENDBRANCH  15  20
ENDBRANCH   1  13
BRANCH   6  23
HETATM   23  N   UNL     1      -0.770  -2.856   0.155  1.00  0.00    -0.359 N 
HETATM   24  C   UNL     1      -1.741  -3.820   0.548  1.00  0.00     0.169 C 
HETATM   25  C   UNL     1      -0.651  -4.898   0.279  1.00  0.00     0.148 C 
HETATM   26  C   UNL     1       0.340  -3.720   0.410  1.00  0.00     0.169 C 
BRANCH  25  27
HETATM   27  C   UNL     1      -0.467  -5.967   1.338  1.00  0.00     0.390 C 
HETATM   28  F   UNL     1       0.768  -6.518   1.180  1.00  0.00    -0.211 F 
HETATM   29  F   UNL     1      -0.498  -5.434   2.585  1.00  0.00    -0.211 F 
ENDBRANCH  25  27
BRANCH  25  30
HETATM   30  O   UNL     1      -0.709  -5.523  -1.046  1.00  0.00    -0.381 OA
HETATM   31  H   UNL     1       0.209  -5.802  -1.223  1.00  0.00     0.211 HD
ENDBRANCH  25  30
ENDBRANCH   6  23
TORSDOF 8
