REMARK  4 active torsions:
REMARK  status: ('A' for Active; 'I' for Inactive)
REMARK    1  A    between atoms: C_8  and  N_9 
REMARK       I    between atoms: N_9  and  C_10 
REMARK       I    between atoms: C_10  and  N_12 
REMARK    2  A    between atoms: N_12  and  C_13 
REMARK    3  A    between atoms: C_13  and  C_14 
REMARK    4  A    between atoms: C_14  and  N_17 
ROOT
HETATM    1  N   UNL     1       2.325  -3.387   2.321  1.00  0.00    -0.294 N 
HETATM    2  C   UNL     1       0.977  -3.507   2.185  1.00  0.00     0.321 C 
HETATM    3  O   UNL     1       0.244  -3.306   3.155  1.00  0.00    -0.247 OA
HETATM    4  N   UNL     1       0.514  -3.868   0.957  1.00  0.00    -0.340 N 
HETATM    5  H   UNL     1       2.602  -3.176   3.267  1.00  0.00     0.172 HD
HETATM    6  H   UNL     1       1.214  -3.822   0.219  1.00  0.00     0.164 HD
ENDROOT
BRANCH   1   7
HETATM    7  C   UNL     1       3.317  -3.503   1.334  1.00  0.00     0.114 A 
HETATM    8  C   UNL     1       4.665  -3.391   1.686  1.00  0.00    -0.018 A 
HETATM    9  C   UNL     1       5.131  -3.139   3.091  1.00  0.00     0.052 C 
HETATM   10  C   UNL     1       5.615  -3.554   0.670  1.00  0.00     0.012 A 
HETATM   11  C   UNL     1       5.213  -3.798  -0.638  1.00  0.00     0.018 A 
HETATM   12  C   UNL     1       3.863  -3.865  -0.895  1.00  0.00     0.089 A 
HETATM   13  N   UNL     1       2.919  -3.722   0.055  1.00  0.00    -0.352 N 
ATOM     14  HN  UNL     1       1.928  -3.777  -0.181  1.00  0.00     0.166 HD
ENDBRANCH   1   7
BRANCH   4  15
HETATM   15  C   UNL     1      -0.878  -3.845   0.589  1.00  0.00     0.165 C 
BRANCH  15  16
HETATM   16  C   UNL     1      -1.659  -5.187   0.731  1.00  0.00     0.168 C 
HETATM   17  C   UNL     1      -1.150  -6.157  -0.373  1.00  0.00     0.050 C 
HETATM   18  C   UNL     1      -1.321  -5.900   2.065  1.00  0.00     0.050 C 
BRANCH  16  19
HETATM   19  N   UNL     1      -3.145  -5.046   0.601  1.00  0.00     0.103 N 
HETATM   20  C   UNL     1      -3.669  -4.484  -0.661  1.00  0.00     0.299 C 
HETATM   21  C   UNL     1      -3.734  -2.948  -0.714  1.00  0.00     0.198 C 
HETATM   22  O   UNL     1      -4.495  -2.416   0.373  1.00  0.00    -0.388 OA
HETATM   23  C   UNL     1      -3.979  -2.851   1.639  1.00  0.00     0.198 C 
HETATM   24  C   UNL     1      -3.862  -4.385   1.718  1.00  0.00     0.299 C 
ENDBRANCH  16  19
ENDBRANCH  15  16
ENDBRANCH   4  15
TORSDOF 4
