REMARK  4 active torsions:
REMARK  status: ('A' for Active; 'I' for Inactive)
REMARK    1  A    between atoms: C_2  and  C_3 
REMARK       I    between atoms: N_6  and  C_10 
REMARK       I    between atoms: C_10  and  N_12 
REMARK    2  A    between atoms: N_12  and  C_13 
REMARK    3  A    between atoms: C_13  and  C_15 
REMARK    4  A    between atoms: C_15  and  N_16 
ROOT
HETATM    1  C   UNL     1       2.870  -1.170  -0.874  1.00  0.00     0.073 C 
HETATM    2  C   UNL     1       3.400  -0.746  -2.252  1.00  0.00     0.047 C 
HETATM    3  C   UNL     1       1.866  -2.334  -1.072  1.00  0.00     0.165 C 
HETATM    4  N   UNL     1       1.514  -2.954   0.209  1.00  0.00    -0.329 N 
HETATM    5  C   UNL     1       2.687  -3.389   0.970  1.00  0.00     0.153 C 
HETATM    6  C   UNL     1       3.715  -2.264   1.110  1.00  0.00     0.189 C 
HETATM    7  O   UNL     1       4.031  -1.649  -0.149  1.00  0.00    -0.377 OA
HETATM    8  C   UNL     1       0.274  -3.403   0.606  1.00  0.00     0.318 C 
HETATM    9  O   UNL     1       0.095  -4.040   1.642  1.00  0.00    -0.247 OA
HETATM   10  N   UNL     1      -0.767  -3.112  -0.234  1.00  0.00    -0.337 N 
HETATM   11  H   UNL     1      -0.646  -2.368  -0.899  1.00  0.00     0.164 HD
ENDROOT
BRANCH  10  12
HETATM   12  C   UNL     1      -2.143  -3.486   0.081  1.00  0.00     0.102 C 
HETATM   13  C   UNL     1      -2.827  -2.333   0.814  1.00  0.00     0.034 C 
BRANCH  12  14
HETATM   14  C   UNL     1      -2.930  -3.856  -1.182  1.00  0.00     0.174 C 
BRANCH  14  15
HETATM   15  N   UNL     1      -2.382  -4.993  -1.889  1.00  0.00    -0.285 N 
HETATM   16  C   UNL     1      -2.244  -6.271  -1.443  1.00  0.00     0.201 A 
HETATM   17  N   UNL     1      -1.769  -7.023  -2.408  1.00  0.00    -0.346 N 
HETATM   18  C   UNL     1      -1.631  -6.142  -3.442  1.00  0.00     0.198 A 
ATOM     19  HN  UNL     1      -1.555  -8.020  -2.390  1.00  0.00     0.167 HD
HETATM   20  N   UNL     1      -2.002  -4.887  -3.177  1.00  0.00    -0.293 N 
ATOM     21  HN  UNL     1      -1.999  -4.069  -3.786  1.00  0.00     0.188 HD
ENDBRANCH  14  15
ENDBRANCH  12  14
ENDBRANCH  10  12
BRANCH   1  22
HETATM   22  C   UNL     1       2.263   0.051  -0.133  1.00  0.00     0.035 C 
HETATM   23  C   UNL     1       1.074   0.723  -0.806  1.00  0.00     0.008 C 
ENDBRANCH   1  22
TORSDOF 4
