REMARK  4 active torsions:
REMARK  status: ('A' for Active; 'I' for Inactive)
REMARK    1  A    between atoms: C_2  and  C_3 
REMARK    2  A    between atoms: C_2  and  N_12 
REMARK       I    between atoms: C_3  and  N_5 
REMARK    3  A    between atoms: N_5  and  C_6 
REMARK    4  A    between atoms: C_6  and  C_7 
ROOT
HETATM    1  C   UNL     1       3.102  -0.129  -1.510  1.00  0.00     0.242 C 
HETATM    2  O   UNL     1       3.690   0.787  -2.085  1.00  0.00    -0.271 OA
HETATM    3  N   UNL     1       2.779  -1.309  -2.147  1.00  0.00    -0.357 N 
HETATM    4  H   UNL     1       2.539  -2.130  -1.594  1.00  0.00     0.162 HD
ENDROOT
BRANCH   1   5
HETATM    5  C   UNL     1       2.619  -0.010  -0.070  1.00  0.00     0.196 C 
HETATM    6  C   UNL     1       2.851   1.391   0.494  1.00  0.00     0.044 C 
BRANCH   5   7
HETATM    7  N   UNL     1       3.240  -1.022   0.766  1.00  0.00    -0.273 N 
HETATM    8  C   UNL     1       4.559  -1.195   1.050  1.00  0.00     0.202 A 
HETATM    9  N   UNL     1       4.698  -2.204   1.880  1.00  0.00    -0.346 N 
HETATM   10  C   UNL     1       3.414  -2.625   2.073  1.00  0.00     0.198 A 
ATOM     11  HN  UNL     1       5.556  -2.581   2.282  1.00  0.00     0.167 HD
HETATM   12  N   UNL     1       2.485  -1.942   1.399  1.00  0.00    -0.292 N 
ATOM     13  HN  UNL     1       1.475  -2.080   1.371  1.00  0.00     0.188 HD
ENDBRANCH   5   7
ENDBRANCH   1   5
BRANCH   3  14
HETATM   14  C   UNL     1       3.192  -1.558  -3.521  1.00  0.00     0.154 C 
BRANCH  14  15
HETATM   15  C   UNL     1       2.298  -2.570  -4.238  1.00  0.00     0.139 C 
HETATM   16  C   UNL     1       0.821  -2.196  -4.315  1.00  0.00     0.035 C 
HETATM   17  C   UNL     1       0.085  -3.500  -4.070  1.00  0.00     0.029 C 
HETATM   18  C   UNL     1       1.175  -4.548  -4.027  1.00  0.00     0.168 C 
HETATM   19  O   UNL     1       2.342  -3.849  -3.582  1.00  0.00    -0.384 OA
ENDBRANCH  14  15
ENDBRANCH   3  14
TORSDOF 4
