REMARK  5 active torsions:
REMARK  status: ('A' for Active; 'I' for Inactive)
REMARK       I    between atoms: N_1  and  C_2 
REMARK    1  A    between atoms: C_2  and  C_4 
REMARK    2  A    between atoms: N_8  and  C_9 
REMARK    3  A    between atoms: C_9  and  C_10 
REMARK    4  A    between atoms: C_10  and  O_11 
REMARK    5  A    between atoms: O_11  and  C_12 
ROOT
HETATM    1  C   UNL     1       2.834   2.053   1.050  1.00  0.00     0.065 A 
HETATM    2  C   UNL     1       3.908   1.343   0.470  1.00  0.00     0.125 A 
HETATM    3  N   UNL     1       4.965   1.242   1.278  1.00  0.00    -0.309 N 
ATOM      4  HN  UNL     1       5.863   0.797   1.089  1.00  0.00     0.186 HD
HETATM    5  N   UNL     1       4.567   1.867   2.403  1.00  0.00    -0.301 N 
HETATM    6  C   UNL     1       3.297   2.358   2.320  1.00  0.00     0.128 A 
ENDROOT
BRANCH   5   7
HETATM    7  C   UNL     1       5.456   1.897   3.552  1.00  0.00     0.175 C 
BRANCH   7   8
HETATM    8  C   UNL     1       5.741   0.482   4.046  1.00  0.00     0.197 C 
BRANCH   8   9
HETATM    9  O   UNL     1       6.547   0.505   5.228  1.00  0.00    -0.348 OA
BRANCH   9  10
HETATM   10  C   UNL     1       7.062  -0.704   5.634  1.00  0.00     0.090 A 
HETATM   11  C   UNL     1       8.367  -0.609   6.153  1.00  0.00     0.041 A 
HETATM   12  C   UNL     1       9.028  -1.734   6.660  1.00  0.00     0.045 A 
HETATM   13  C   UNL     1       8.386  -2.960   6.650  1.00  0.00     0.118 A 
HETATM   14  F   UNL     1       9.005  -4.038   7.145  1.00  0.00    -0.206 F 
HETATM   15  C   UNL     1       7.097  -3.082   6.157  1.00  0.00     0.069 A 
HETATM   16  C   UNL     1       6.424  -1.958   5.660  1.00  0.00     0.070 A 
HETATM   17 CL   UNL     1       4.785  -2.251   5.198  1.00  0.00    -0.081 Cl
ENDBRANCH   9  10
ENDBRANCH   8   9
ENDBRANCH   7   8
ENDBRANCH   5   7
BRANCH   1  18
HETATM   18  C   UNL     1       1.534   2.406   0.512  1.00  0.00     0.252 C 
HETATM   19  N   UNL     1       1.311   2.082  -0.794  1.00  0.00    -0.366 N 
HETATM   20  H   UNL     1       0.433   2.379  -1.197  1.00  0.00     0.159 HD
HETATM   21  H   UNL     1       2.013   1.696  -1.408  1.00  0.00     0.159 HD
HETATM   22  O   UNL     1       0.667   2.979   1.163  1.00  0.00    -0.268 OA
ENDBRANCH   1  18
TORSDOF 5
