REMARK  5 active torsions:
REMARK  status: ('A' for Active; 'I' for Inactive)
REMARK    1  A    between atoms: C_2  and  C_4 
REMARK    2  A    between atoms: C_7  and  C_8 
REMARK    3  A    between atoms: C_8  and  C_9 
REMARK    4  A    between atoms: C_9  and  N_10 
REMARK       I    between atoms: N_10  and  C_11 
REMARK    5  A    between atoms: C_11  and  C_13 
ROOT
HETATM    1  C   UNL     1       3.157  -2.925  -0.810  1.00  0.00     0.054 A 
HETATM    2  N   UNL     1       3.757  -3.133  -1.965  1.00  0.00    -0.356 N 
ATOM      3  HN  UNL     1       4.255  -3.987  -2.218  1.00  0.00     0.166 HD
HETATM    4  C   UNL     1       3.615  -2.026  -2.787  1.00  0.00     0.018 A 
HETATM    5  C   UNL     1       2.918  -0.975  -2.221  1.00  0.00     0.076 A 
HETATM    6  S   UNL     1       2.408  -1.386  -0.640  1.00  0.00    -0.086 SA
ENDROOT
BRANCH   4   7
HETATM    7  C   UNL     1       4.217  -2.043  -4.157  1.00  0.00     0.077 C 
BRANCH   7   8
HETATM    8  C   UNL     1       4.197  -3.432  -4.801  1.00  0.00     0.128 C 
BRANCH   8   9
HETATM    9  N   UNL     1       4.764  -3.459  -6.140  1.00  0.00    -0.360 N 
HETATM   10  C   UNL     1       4.144  -2.832  -7.191  1.00  0.00     0.221 C 
HETATM   11  O   UNL     1       3.143  -2.137  -7.088  1.00  0.00    -0.273 OA
HETATM   12  H   UNL     1       5.485  -4.140  -6.336  1.00  0.00     0.162 HD
BRANCH  10  13
HETATM   13  C   UNL     1       4.769  -3.089  -8.518  1.00  0.00     0.078 A 
HETATM   14  C   UNL     1       4.408  -2.229  -9.708  1.00  0.00     0.015 A 
HETATM   15  C   UNL     1       3.920  -3.647  -9.637  1.00  0.00     0.015 A 
ENDBRANCH  10  13
ENDBRANCH   8   9
ENDBRANCH   7   8
ENDBRANCH   4   7
BRANCH   1  16
HETATM   16  C   UNL     1       3.117  -3.919   0.321  1.00  0.00     0.035 C 
HETATM   17  C   UNL     1       2.450  -5.220  -0.125  1.00  0.00     0.016 C 
HETATM   18  C   UNL     1       4.530  -4.188   0.839  1.00  0.00     0.016 C 
ENDBRANCH   1  16
TORSDOF 5
