REMARK  4 active torsions:
REMARK  status: ('A' for Active; 'I' for Inactive)
REMARK    1  A    between atoms: N_6  and  C_7 
REMARK    2  A    between atoms: C_7  and  C_8 
REMARK       I    between atoms: C_8  and  N_10 
REMARK    3  A    between atoms: N_10  and  C_11 
REMARK    4  A    between atoms: C_11  and  C_12 
ROOT
HETATM    1  C   UNL     1       6.951  -0.673  -0.014  1.00  0.00     0.235 C 
HETATM    2  O   UNL     1       6.963   0.541   0.179  1.00  0.00    -0.272 OA
HETATM    3  N   UNL     1       8.103  -1.416  -0.151  1.00  0.00    -0.357 N 
HETATM    4  H   UNL     1       8.061  -2.405  -0.374  1.00  0.00     0.162 HD
ENDROOT
BRANCH   1   5
HETATM    5  C   UNL     1       5.662  -1.460  -0.096  1.00  0.00     0.232 C 
BRANCH   5   6
HETATM    6  N   UNL     1       5.091  -1.823   1.192  1.00  0.00    -0.336 N 
HETATM    7  C   UNL     1       5.619  -1.570   2.426  1.00  0.00     0.183 A 
HETATM    8  N   UNL     1       4.869  -2.060   3.385  1.00  0.00    -0.354 N 
HETATM    9  C   UNL     1       3.797  -2.640   2.757  1.00  0.00     0.028 A 
ATOM     10  HN  UNL     1       5.047  -2.018   4.389  1.00  0.00     0.166 HD
HETATM   11  C   UNL     1       2.720  -3.282   3.545  1.00  0.00     0.070 C 
HETATM   12  C   UNL     1       3.908  -2.510   1.383  1.00  0.00     0.031 A 
HETATM   13  C   UNL     1       2.996  -2.971   0.307  1.00  0.00     0.070 C 
ENDBRANCH   5   6
ENDBRANCH   1   5
BRANCH   3  14
HETATM   14  C   UNL     1       9.427  -0.816  -0.082  1.00  0.00     0.154 C 
BRANCH  14  15
HETATM   15  C   UNL     1      10.049  -0.513  -1.450  1.00  0.00     0.139 C 
HETATM   16  C   UNL     1       9.297   0.463  -2.341  1.00  0.00     0.035 C 
HETATM   17  C   UNL     1       9.585  -0.017  -3.751  1.00  0.00     0.029 C 
HETATM   18  C   UNL     1      10.420  -1.268  -3.574  1.00  0.00     0.168 C 
HETATM   19  O   UNL     1      10.182  -1.713  -2.234  1.00  0.00    -0.384 OA
ENDBRANCH  14  15
ENDBRANCH   3  14
TORSDOF 4
