REMARK  4 active torsions:
REMARK  status: ('A' for Active; 'I' for Inactive)
REMARK       I    between atoms: N_1  and  C_2 
REMARK    1  A    between atoms: C_2  and  C_4 
REMARK       I    between atoms: N_7  and  C_10 
REMARK       I    between atoms: C_10  and  N_12 
REMARK    2  A    between atoms: N_12  and  C_13 
REMARK    3  A    between atoms: C_13  and  C_14 
REMARK    4  A    between atoms: C_14  and  C_15 
ROOT
HETATM    1  C   UNL     1       3.275   1.244  -0.682  1.00  0.00     0.081 C 
HETATM    2  C   UNL     1       3.869   2.152   0.406  1.00  0.00     0.034 C 
HETATM    3  C   UNL     1       2.861   3.173   0.929  1.00  0.00     0.128 C 
HETATM    4  N   UNL     1       2.289   3.942  -0.176  1.00  0.00    -0.334 N 
HETATM    5  C   UNL     1       1.641   3.134  -1.206  1.00  0.00     0.128 C 
HETATM    6  C   UNL     1       2.589   2.075  -1.773  1.00  0.00     0.034 C 
HETATM    7  C   UNL     1       2.316   5.322  -0.323  1.00  0.00     0.318 C 
HETATM    8  O   UNL     1       1.934   5.894  -1.341  1.00  0.00    -0.247 OA
HETATM    9  N   UNL     1       2.813   6.019   0.753  1.00  0.00    -0.343 N 
HETATM   10  H   UNL     1       2.542   5.621   1.639  1.00  0.00     0.164 HD
ENDROOT
BRANCH   9  11
HETATM   11  C   UNL     1       2.843   7.481   0.718  1.00  0.00     0.130 C 
BRANCH  11  12
HETATM   12  C   UNL     1       3.517   8.059   1.960  1.00  0.00     0.076 C 
BRANCH  12  13
HETATM   13  C   UNL     1       3.583   9.565   1.954  1.00  0.00     0.010 A 
HETATM   14  C   UNL     1       4.670  10.229   1.390  1.00  0.00     0.025 A 
HETATM   15  C   UNL     1       4.725  11.619   1.463  1.00  0.00     0.003 A 
HETATM   16  C   UNL     1       3.694  12.311   2.086  1.00  0.00     0.017 A 
HETATM   17  C   UNL     1       2.641  11.578   2.607  1.00  0.00     0.088 A 
HETATM   18  N   UNL     1       2.563  10.228   2.555  1.00  0.00    -0.369 N 
ATOM     19  HN  UNL     1       1.768   9.728   2.952  1.00  0.00     0.165 HD
ENDBRANCH  12  13
ENDBRANCH  11  12
ENDBRANCH   9  11
BRANCH   1  20
HETATM   20  C   UNL     1       2.366   0.178  -0.080  1.00  0.00     0.219 C 
HETATM   21  N   UNL     1       1.890  -0.753  -0.955  1.00  0.00    -0.370 N 
HETATM   22  H   UNL     1       1.371  -1.525  -0.555  1.00  0.00     0.159 HD
HETATM   23  H   UNL     1       2.278  -0.876  -1.880  1.00  0.00     0.159 HD
HETATM   24  O   UNL     1       2.086   0.101   1.111  1.00  0.00    -0.273 OA
ENDBRANCH   1  20
TORSDOF 4
