REMARK  4 active torsions:
REMARK  status: ('A' for Active; 'I' for Inactive)
REMARK    1  A    between atoms: N_1  and  C_14 
REMARK    2  A    between atoms: N_2  and  C_15 
REMARK    3  A    between atoms: C_9  and  C_14 
REMARK    4  A    between atoms: C_10  and  C_17 
ROOT
HETATM    1  C   UNL     1      -1.722   2.265  -0.068  1.00  0.00     0.223 C 
ENDROOT
BRANCH   1   2
HETATM    2  N   UNL     1      -0.878   1.071   0.010  1.00  0.00    -0.256 N 
HETATM    3  C   UNL     1      -1.454  -0.163  -0.267  1.00  0.00     0.334 C 
HETATM    4  N   UNL     1      -0.651  -1.276  -0.027  1.00  0.00    -0.279 N 
HETATM    5  O   UNL     1      -2.600  -0.280  -0.699  1.00  0.00    -0.246 OA
HETATM    6  C   UNL     1       0.711  -1.168   0.140  1.00  0.00     0.146 C 
HETATM    7  C   UNL     1       1.306   0.023   0.164  1.00  0.00     0.200 C 
HETATM    8  C   UNL     1       0.497   1.259   0.083  1.00  0.00     0.292 C 
HETATM    9  F   UNL     1       2.641   0.157   0.283  1.00  0.00    -0.199 F 
HETATM   10  O   UNL     1       1.048   2.359   0.047  1.00  0.00    -0.264 OA
BRANCH   4  11
HETATM   11  C   UNL     1      -1.332  -2.554   0.085  1.00  0.00     0.232 C 
HETATM   12  O   UNL     1      -0.666  -3.408   1.030  1.00  0.00    -0.366 OA
HETATM   13  C   UNL     1      -0.985  -4.764   0.679  1.00  0.00     0.170 C 
HETATM   14  C   UNL     1      -1.807  -4.720  -0.600  1.00  0.00     0.031 C 
HETATM   15  C   UNL     1      -1.432  -3.377  -1.186  1.00  0.00     0.056 C 
ENDBRANCH   4  11
ENDBRANCH   1   2
BRANCH   1  16
HETATM   16  C   UNL     1      -2.894   2.204   0.855  1.00  0.00     0.159 A 
HETATM   17  O   UNL     1      -4.104   1.819   0.329  1.00  0.00    -0.276 OA
HETATM   18  C   UNL     1      -4.925   1.870   1.425  1.00  0.00     0.174 A 
HETATM   19  N   UNL     1      -4.293   2.298   2.502  1.00  0.00    -0.277 N 
HETATM   20  N   UNL     1      -2.978   2.512   2.132  1.00  0.00    -0.280 N 
ATOM     21  HN  UNL     1      -4.696   2.443   3.428  1.00  0.00     0.189 HD
ATOM     22  HN  UNL     1      -2.222   2.843   2.731  1.00  0.00     0.189 HD
BRANCH  18  23
HETATM   23  C   UNL     1      -6.311   1.439   1.258  1.00  0.00     0.017 A 
HETATM   24  C   UNL     1      -6.819   1.018   0.019  1.00  0.00     0.017 A 
HETATM   25  C   UNL     1      -8.146   0.588  -0.107  1.00  0.00     0.025 A 
HETATM   26  C   UNL     1      -8.980   0.571   1.010  1.00  0.00     0.034 A 
HETATM   27  C   UNL     1      -8.499   0.985   2.249  1.00  0.00     0.025 A 
HETATM   28 CL   UNL     1     -10.606   0.030   0.857  1.00  0.00    -0.084 Cl
HETATM   29  C   UNL     1      -7.173   1.419   2.370  1.00  0.00     0.017 A 
ENDBRANCH  18  23
ENDBRANCH   1  16
TORSDOF 4
