REMARK  5 active torsions:
REMARK  status: ('A' for Active; 'I' for Inactive)
REMARK    1  A    between atoms: C_2  and  N_5 
REMARK       I    between atoms: N_5  and  C_6 
REMARK    2  A    between atoms: C_6  and  C_8 
REMARK    3  A    between atoms: C_8  and  N_9 
REMARK    4  A    between atoms: C_12  and  C_21 
REMARK    5  A    between atoms: C_14  and  C_17 
ROOT
HETATM    1  N   UNL     1       6.341  -3.273   0.058  1.00  0.00    -0.248 N 
HETATM    2  N   UNL     1       6.932  -3.332   1.303  1.00  0.00    -0.299 N 
ATOM      3  HN  UNL     1       6.392  -3.206   2.159  1.00  0.00     0.187 HD
HETATM    4  C   UNL     1       8.203  -3.555   1.331  1.00  0.00     0.031 A 
HETATM    5  C   UNL     1       9.061  -3.733   0.157  1.00  0.00     0.049 A 
HETATM    6  C   UNL     1       8.479  -3.660  -1.049  1.00  0.00     0.119 A 
HETATM    7  C   UNL     1       7.028  -3.405  -1.149  1.00  0.00     0.277 A 
HETATM    8  O   UNL     1       6.472  -3.325  -2.238  1.00  0.00    -0.266 OA
ENDROOT
BRANCH   1   9
HETATM    9  C   UNL     1       4.889  -3.100   0.028  1.00  0.00     0.255 C 
BRANCH   9  10
HETATM   10  C   UNL     1       4.469  -1.633  -0.029  1.00  0.00     0.238 C 
HETATM   11  N   UNL     1       5.306  -0.759   0.641  1.00  0.00    -0.352 N 
HETATM   12  H   UNL     1       6.112  -1.183   1.094  1.00  0.00     0.163 HD
HETATM   13  O   UNL     1       3.387  -1.301  -0.508  1.00  0.00    -0.272 OA
BRANCH  11  14
HETATM   14  C   UNL     1       5.065   0.683   0.791  1.00  0.00     0.022 C 
HETATM   15  C   UNL     1       3.753   0.947   1.549  1.00  0.00     0.037 C 
HETATM   16  C   UNL     1       5.030   1.372  -0.583  1.00  0.00     0.037 C 
HETATM   17  C   UNL     1       6.219   1.293   1.608  1.00  0.00     0.037 C 
ENDBRANCH  11  14
ENDBRANCH   9  10
ENDBRANCH   1   9
BRANCH   4  18
HETATM   18  C   UNL     1       8.876  -3.682   2.643  1.00  0.00     0.037 A 
HETATM   19  C   UNL     1       8.435  -2.869   3.837  1.00  0.00     0.011 A 
HETATM   20  C   UNL     1       9.737  -2.554   3.163  1.00  0.00     0.011 A 
ENDBRANCH   4  18
BRANCH   6  21
HETATM   21  C   UNL     1       9.249  -3.851  -2.302  1.00  0.00     0.422 C 
HETATM   22  F   UNL     1       8.579  -3.704  -3.467  1.00  0.00    -0.166 F 
HETATM   23  F   UNL     1      10.296  -2.981  -2.353  1.00  0.00    -0.166 F 
HETATM   24  F   UNL     1       9.806  -5.094  -2.333  1.00  0.00    -0.166 F 
ENDBRANCH   6  21
TORSDOF 5
