REMARK  6 active torsions:
REMARK  status: ('A' for Active; 'I' for Inactive)
REMARK    1  A    between atoms: C_2  and  O_3 
REMARK    2  A    between atoms: C_2  and  C_4 
REMARK    3  A    between atoms: C_2  and  C_16 
REMARK    4  A    between atoms: C_4  and  N_5 
REMARK    5  A    between atoms: C_7  and  C_12 
REMARK    6  A    between atoms: C_16  and  O_18 
ROOT
HETATM    1  N   UNL     1       2.507   2.534   0.114  1.00  0.00    -0.320 N 
HETATM    2  C   UNL     1       1.335   3.193   0.457  1.00  0.00     0.110 A 
HETATM    3  C   UNL     1       0.936   4.305  -0.187  1.00  0.00     0.063 A 
HETATM    4  C   UNL     1       1.786   4.851  -1.230  1.00  0.00     0.023 A 
HETATM    5  C   UNL     1       2.919   4.234  -1.592  1.00  0.00     0.075 A 
HETATM    6  C   UNL     1       3.316   2.965  -0.935  1.00  0.00     0.247 A 
HETATM    7  O   UNL     1       4.293   2.334  -1.336  1.00  0.00    -0.268 OA
ENDROOT
BRANCH   1   8
HETATM    8  C   UNL     1       2.883   1.305   0.828  1.00  0.00     0.180 C 
BRANCH   8   9
HETATM    9  C   UNL     1       2.464  -0.000   0.110  1.00  0.00     0.155 C 
HETATM   10  C   UNL     1       0.952  -0.156  -0.025  1.00  0.00     0.059 C 
BRANCH   9  11
HETATM   11  O   UNL     1       3.047  -0.128  -1.206  1.00  0.00    -0.378 OA
HETATM   12  H   UNL     1       3.669   0.624  -1.342  1.00  0.00     0.211 HD
ENDBRANCH   9  11
BRANCH   9  13
HETATM   13  C   UNL     1       2.999  -1.161   0.956  1.00  0.00     0.177 C 
HETATM   14  O   UNL     1       2.791  -1.315   2.150  1.00  0.00    -0.648 OA
BRANCH  13  15
HETATM   15  O   UNL     1       3.748  -2.020   0.217  1.00  0.00    -0.774 OA
HETATM   16  H   UNL     1       3.747  -1.686  -0.714  1.00  0.00     0.167 HD
ENDBRANCH  13  15
ENDBRANCH   9  13
ENDBRANCH   8   9
ENDBRANCH   1   8
BRANCH   3  17
HETATM   17  C   UNL     1      -0.369   4.976   0.140  1.00  0.00     0.418 C 
HETATM   18  F   UNL     1      -0.646   6.024  -0.676  1.00  0.00    -0.166 F 
HETATM   19  F   UNL     1      -1.410   4.111   0.034  1.00  0.00    -0.166 F 
HETATM   20  F   UNL     1      -0.382   5.452   1.411  1.00  0.00    -0.166 F 
ENDBRANCH   3  17
TORSDOF 6
