REMARK  4 active torsions:
REMARK  status: ('A' for Active; 'I' for Inactive)
REMARK    1  A    between atoms: N_4  and  C_9 
REMARK    2  A    between atoms: C_12  and  N_13 
REMARK       I    between atoms: N_13  and  C_14 
REMARK       I    between atoms: C_14  and  N_16 
REMARK    3  A    between atoms: N_16  and  C_17 
REMARK    4  A    between atoms: C_17  and  C_18 
ROOT
HETATM    1  C   UNL     1       1.876   1.523  -3.518  1.00  0.00     0.103 A 
HETATM    2  C   UNL     1       1.121   1.038  -4.579  1.00  0.00     0.051 A 
HETATM    3  C   UNL     1       0.583   1.900  -5.533  1.00  0.00     0.035 A 
HETATM    4  C   UNL     1       0.758   3.270  -5.418  1.00  0.00     0.051 A 
HETATM    5  C   UNL     1       1.506   3.690  -4.327  1.00  0.00     0.119 A 
HETATM    6  N   UNL     1       2.057   2.858  -3.394  1.00  0.00    -0.350 N 
ATOM      7  HN  UNL     1       2.597   3.237  -2.616  1.00  0.00     0.166 HD
ENDROOT
BRANCH   4   8
HETATM    8  N   UNL     1       0.229   4.192  -6.354  1.00  0.00    -0.308 N 
HETATM    9  C   UNL     1      -0.773   3.894  -7.249  1.00  0.00     0.320 C 
HETATM   10  O   UNL     1      -1.429   2.857  -7.274  1.00  0.00    -0.247 OA
HETATM   11  N   UNL     1      -1.013   4.914  -8.152  1.00  0.00    -0.340 N 
HETATM   12  H   UNL     1      -0.186   5.400  -8.475  1.00  0.00     0.164 HD
HETATM   13  H   UNL     1       0.438   5.172  -6.228  1.00  0.00     0.170 HD
BRANCH  11  14
HETATM   14  C   UNL     1      -1.991   4.607  -9.187  1.00  0.00     0.156 C 
BRANCH  14  15
HETATM   15  C   UNL     1      -2.316   5.763 -10.126  1.00  0.00     0.139 C 
HETATM   16  C   UNL     1      -3.411   5.381 -11.115  1.00  0.00     0.035 C 
HETATM   17  C   UNL     1      -3.006   6.033 -12.418  1.00  0.00     0.029 C 
HETATM   18  C   UNL     1      -1.692   6.721 -12.115  1.00  0.00     0.168 C 
HETATM   19  O   UNL     1      -1.175   6.103 -10.930  1.00  0.00    -0.384 OA
ENDBRANCH  14  15
ENDBRANCH  11  14
ENDBRANCH   4   8
BRANCH   1  20
HETATM   20  N   UNL     1       2.386   0.673  -2.561  1.00  0.00    -0.362 N 
HETATM   21  C   UNL     1       3.121   1.207  -1.407  1.00  0.00     0.156 C 
HETATM   22  C   UNL     1       2.766   0.369  -0.153  1.00  0.00     0.136 C 
HETATM   23  C   UNL     1       1.363   0.688   0.364  1.00  0.00     0.041 C 
HETATM   24  O   UNL     1       2.932  -1.052  -0.368  1.00  0.00    -0.378 OA
HETATM   25  C   UNL     1       2.224  -1.530  -1.529  1.00  0.00     0.136 C 
HETATM   26  C   UNL     1       2.649  -0.752  -2.789  1.00  0.00     0.156 C 
HETATM   27  C   UNL     1       2.515  -3.017  -1.688  1.00  0.00     0.041 C 
ENDBRANCH   1  20
TORSDOF 4
