REMARK  5 active torsions:
REMARK  status: ('A' for Active; 'I' for Inactive)
REMARK    1  A    between atoms: C_2  and  C_5 
REMARK    2  A    between atoms: C_5  and  N_6 
REMARK       I    between atoms: N_6  and  C_7 
REMARK    3  A    between atoms: C_7  and  C_9 
REMARK    4  A    between atoms: C_9  and  C_10 
REMARK    5  A    between atoms: C_13  and  N_16 
ROOT
HETATM    1  C   UNL     1       7.209  -4.217  -0.355  1.00  0.00     0.026 A 
HETATM    2  C   UNL     1       7.885  -4.820   0.686  1.00  0.00     0.078 A 
HETATM    3  S   UNL     1       8.347  -6.403   0.244  1.00  0.00    -0.064 SA
HETATM    4  C   UNL     1       7.693  -6.164  -1.319  1.00  0.00     0.153 A 
HETATM    5  N   UNL     1       7.126  -4.991  -1.513  1.00  0.00    -0.339 N 
ATOM      6  HN  UNL     1       6.689  -4.691  -2.385  1.00  0.00     0.168 HD
ENDROOT
BRANCH   1   7
HETATM    7  C   UNL     1       6.607  -2.846  -0.344  1.00  0.00     0.160 C 
BRANCH   7   8
HETATM    8  C   UNL     1       5.086  -2.854  -0.386  1.00  0.00     0.223 C 
HETATM    9  N   UNL     1       4.518  -3.787  -1.221  1.00  0.00    -0.360 N 
HETATM   10  H   UNL     1       5.141  -4.458  -1.666  1.00  0.00     0.162 HD
HETATM   11  O   UNL     1       4.423  -2.023   0.236  1.00  0.00    -0.273 OA
BRANCH   9  12
HETATM   12  C   UNL     1       3.084  -3.925  -1.364  1.00  0.00     0.131 C 
BRANCH  12  13
HETATM   13  C   UNL     1       2.650  -5.118  -2.243  1.00  0.00    -0.035 C 
HETATM   14  C   UNL     1       3.112  -6.446  -1.618  1.00  0.00     0.016 C 
HETATM   15  C   UNL     1       3.220  -4.991  -3.664  1.00  0.00     0.016 C 
HETATM   16  C   UNL     1       1.112  -5.123  -2.326  1.00  0.00     0.016 C 
ENDBRANCH  12  13
ENDBRANCH   9  12
ENDBRANCH   7   8
ENDBRANCH   1   7
BRANCH   4  17
HETATM   17  N   UNL     1       7.870  -7.101  -2.322  1.00  0.00    -0.298 N 
HETATM   18  C   UNL     1       7.664  -6.801  -3.714  1.00  0.00     0.134 C 
HETATM   19  C   UNL     1       8.152  -8.011  -4.486  1.00  0.00     0.029 C 
HETATM   20  C   UNL     1       8.755  -8.949  -3.457  1.00  0.00     0.105 C 
HETATM   21  C   UNL     1       8.344  -8.392  -2.121  1.00  0.00     0.225 C 
HETATM   22  O   UNL     1       8.469  -9.026  -1.083  1.00  0.00    -0.273 OA
ENDBRANCH   4  17
TORSDOF 5
