REMARK  6 active torsions:
REMARK  status: ('A' for Active; 'I' for Inactive)
REMARK    1  A    between atoms: C_2  and  C_3 
REMARK    2  A    between atoms: C_2  and  N_11 
REMARK    3  A    between atoms: C_3  and  N_4 
REMARK    4  A    between atoms: N_11  and  C_12 
REMARK    5  A    between atoms: C_12  and  C_13 
REMARK    6  A    between atoms: C_13  and  C_14 
REMARK       I    between atoms: C_14  and  N_16 
ROOT
HETATM    1  N   UNL     1       3.098   1.186   0.790  1.00  0.00     0.089 N 
HETATM    2  H   UNL     1       2.690   1.188   1.726  1.00  0.00     0.316 HD
ENDROOT
BRANCH   1   3
HETATM    3  C   UNL     1       2.573  -0.000   0.062  1.00  0.00     0.236 C 
HETATM    4  C   UNL     1       1.041   0.110   0.070  1.00  0.00     0.044 C 
BRANCH   3   5
HETATM    5  C   UNL     1       3.110  -0.119  -1.383  1.00  0.00     0.183 C 
BRANCH   5   6
HETATM    6  N   UNL     1       2.592  -1.264  -2.106  1.00  0.00    -0.301 N 
HETATM    7  C   UNL     1       1.907  -1.243  -3.286  1.00  0.00     0.118 A 
HETATM    8  C   UNL     1       1.623  -2.556  -3.594  1.00  0.00    -0.028 A 
HETATM    9  C   UNL     1       0.887  -3.085  -4.762  1.00  0.00     0.051 C 
HETATM   10  C   UNL     1       2.200  -3.290  -2.534  1.00  0.00     0.115 A 
HETATM   11  N   UNL     1       2.796  -2.509  -1.632  1.00  0.00    -0.310 N 
ATOM     12  HN  UNL     1       3.289  -2.788  -0.784  1.00  0.00     0.186 HD
ENDBRANCH   5   6
ENDBRANCH   3   5
ENDBRANCH   1   3
BRANCH   1  13
HETATM   13  C   UNL     1       4.563   1.147   0.915  1.00  0.00     0.279 C 
BRANCH  13  14
HETATM   14  C   UNL     1       5.096   2.330   1.727  1.00  0.00     0.133 C 
BRANCH  14  15
HETATM   15  C   UNL     1       6.615   2.264   1.793  1.00  0.00     0.221 C 
HETATM   16  O   UNL     1       7.229   1.332   1.272  1.00  0.00    -0.273 OA
HETATM   17  N   UNL     1       7.273   3.290   2.457  1.00  0.00    -0.352 N 
HETATM   18  C   UNL     1       6.637   4.414   3.143  1.00  0.00     0.125 C 
HETATM   19  C   UNL     1       8.729   3.231   2.575  1.00  0.00     0.125 C 
HETATM   20  C   UNL     1       7.243   5.741   2.688  1.00  0.00     0.020 C 
HETATM   21  C   UNL     1       8.767   5.733   2.807  1.00  0.00     0.003 C 
HETATM   22  C   UNL     1       9.364   4.528   2.085  1.00  0.00     0.020 C 
ENDBRANCH  14  15
ENDBRANCH  13  14
ENDBRANCH   1  13
TORSDOF 6
