REMARK  5 active torsions:
REMARK  status: ('A' for Active; 'I' for Inactive)
REMARK    1  A    between atoms: C_2  and  O_3 
REMARK    2  A    between atoms: O_3  and  C_4 
REMARK    3  A    between atoms: C_6  and  N_7 
REMARK       I    between atoms: N_7  and  C_8 
REMARK    4  A    between atoms: C_8  and  C_10 
REMARK    5  A    between atoms: C_10  and  C_11 
ROOT
HETATM    1  N   UNL     1       6.291  -1.635  -3.110  1.00  0.00    -0.355 N 
HETATM    2  C   UNL     1       6.344  -2.594  -4.108  1.00  0.00     0.222 C 
HETATM    3  O   UNL     1       5.470  -3.441  -4.281  1.00  0.00    -0.273 OA
HETATM    4  H   UNL     1       6.963  -0.879  -3.155  1.00  0.00     0.162 HD
ENDROOT
BRANCH   1   5
HETATM    5  C   UNL     1       5.120  -1.529  -2.222  1.00  0.00     0.097 C 
HETATM    6  C   UNL     1       5.149  -0.343  -1.219  1.00  0.00     0.059 C 
HETATM    7  C   UNL     1       4.451  -1.294  -0.187  1.00  0.00     0.133 C 
HETATM    8  C   UNL     1       5.084  -2.419  -1.002  1.00  0.00     0.006 C 
HETATM    9  C   UNL     1       6.351  -3.029  -0.420  1.00  0.00     0.014 C 
HETATM   10  C   UNL     1       4.453  -3.787  -1.082  1.00  0.00     0.014 C 
HETATM   11  C   UNL     1       5.448  -4.208   0.030  1.00  0.00     0.002 C 
BRANCH   7  12
HETATM   12  O   UNL     1       3.008  -1.187  -0.189  1.00  0.00    -0.385 OA
BRANCH  12  13
HETATM   13  C   UNL     1       2.309  -1.873   0.845  1.00  0.00     0.163 C 
HETATM   14  C   UNL     1       0.822  -1.715   0.601  1.00  0.00     0.033 C 
ENDBRANCH  12  13
ENDBRANCH   7  12
ENDBRANCH   1   5
BRANCH   2  15
HETATM   15  C   UNL     1       7.566  -2.517  -5.000  1.00  0.00     0.142 C 
BRANCH  15  16
HETATM   16  C   UNL     1       7.332  -1.684  -6.228  1.00  0.00    -0.034 A 
HETATM   17  C   UNL     1       8.145  -0.591  -6.531  1.00  0.00     0.011 A 
HETATM   18  C   UNL     1       7.895   0.160  -7.677  1.00  0.00     0.025 A 
HETATM   19  C   UNL     1       6.839  -0.203  -8.505  1.00  0.00     0.005 A 
HETATM   20  C   UNL     1       6.513   0.592  -9.732  1.00  0.00     0.068 C 
HETATM   21  N   UNL     1       6.048  -1.269  -8.242  1.00  0.00    -0.369 N 
HETATM   22  C   UNL     1       6.308  -1.983  -7.123  1.00  0.00     0.095 A 
ATOM     23  HN  UNL     1       5.283  -1.525  -8.866  1.00  0.00     0.165 HD
ENDBRANCH  15  16
ENDBRANCH   2  15
TORSDOF 5
