REMARK  4 active torsions:
REMARK  status: ('A' for Active; 'I' for Inactive)
REMARK       I    between atoms: C_2  and  N_3 
REMARK       I    between atoms: C_2  and  N_13 
REMARK    1  A    between atoms: N_3  and  C_4 
REMARK    2  A    between atoms: C_4  and  C_5 
REMARK    3  A    between atoms: C_5  and  N_6 
REMARK    4  A    between atoms: N_13  and  C_14 
ROOT
HETATM    1  O   UNL     1       0.971   0.228  -0.038  1.00  0.00    -0.247 OA
HETATM    2  C   UNL     1       2.172  -0.013  -0.006  1.00  0.00     0.320 C 
HETATM    3  N   UNL     1       2.838  -0.533  -1.095  1.00  0.00    -0.341 N 
HETATM    4  N   UNL     1       3.020   0.201   1.060  1.00  0.00    -0.309 N 
HETATM    5  H   UNL     1       3.719  -0.997  -0.933  1.00  0.00     0.164 HD
HETATM    6  H   UNL     1       4.007   0.139   0.865  1.00  0.00     0.170 HD
ENDROOT
BRANCH   3   7
HETATM    7  C   UNL     1       2.132  -0.852  -2.336  1.00  0.00     0.145 C 
BRANCH   7   8
HETATM    8  C   UNL     1       2.551   0.085  -3.472  1.00  0.00     0.156 C 
BRANCH   8   9
HETATM    9  N   UNL     1       1.913  -0.202  -4.744  1.00  0.00    -0.267 N 
HETATM   10  C   UNL     1       1.137   0.682  -5.441  1.00  0.00     0.245 A 
HETATM   11  O   UNL     1       0.757   1.782  -5.066  1.00  0.00    -0.271 OA
HETATM   12  C   UNL     1       0.855   0.099  -6.818  1.00  0.00     0.227 A 
HETATM   13  N   UNL     1       1.528  -1.164  -6.712  1.00  0.00    -0.334 N 
HETATM   14  C   UNL     1       2.188  -1.294  -5.512  1.00  0.00     0.325 A 
HETATM   15  H   UNL     1       1.670  -1.828  -7.462  1.00  0.00     0.164 HD
HETATM   16  O   UNL     1       2.918  -2.230  -5.230  1.00  0.00    -0.247 OA
ENDBRANCH   8   9
ENDBRANCH   7   8
ENDBRANCH   3   7
BRANCH   4  17
HETATM   17  C   UNL     1       2.654   0.620   2.362  1.00  0.00     0.038 A 
HETATM   18  C   UNL     1       1.333   0.778   2.775  1.00  0.00     0.046 A 
HETATM   19  C   UNL     1       1.082   1.165   4.082  1.00  0.00     0.090 A 
HETATM   20  N   UNL     1       2.047   1.401   4.995  1.00  0.00    -0.375 N 
HETATM   21  C   UNL     1       3.317   1.246   4.578  1.00  0.00     0.090 A 
ATOM     22  HN  UNL     1       1.826   1.682   5.950  1.00  0.00     0.164 HD
HETATM   23  C   UNL     1       3.670   0.865   3.290  1.00  0.00     0.046 A 
ENDBRANCH   4  17
TORSDOF 4
