REMARK  5 active torsions:
REMARK  status: ('A' for Active; 'I' for Inactive)
REMARK    1  A    between atoms: N_1  and  S_2 
REMARK    2  A    between atoms: S_2  and  N_5 
REMARK    3  A    between atoms: N_5  and  C_6 
REMARK    4  A    between atoms: C_6  and  C_7 
REMARK    5  A    between atoms: C_10  and  N_14 
ROOT
HETATM    1  C   UNL     1       5.142  -2.917  -1.018  1.00  0.00    -0.029 A 
HETATM    2  C   UNL     1       5.928  -3.031  -2.162  1.00  0.00     0.013 A 
HETATM    3  C   UNL     1       6.212  -4.294  -2.682  1.00  0.00     0.049 A 
HETATM    4  C   UNL     1       5.709  -5.439  -2.066  1.00  0.00     0.103 A 
HETATM    5  N   UNL     1       4.969  -5.335  -0.942  1.00  0.00    -0.352 N 
ATOM      6  HN  UNL     1       4.610  -6.169  -0.478  1.00  0.00     0.166 HD
HETATM    7  C   UNL     1       4.711  -4.102  -0.441  1.00  0.00     0.098 A 
ENDROOT
BRANCH   1   8
HETATM    8  C   UNL     1       4.769  -1.580  -0.441  1.00  0.00     0.145 C 
BRANCH   8   9
HETATM    9  N   UNL     1       4.002  -0.773  -1.414  1.00  0.00    -0.203 NA
HETATM   10  H   UNL     1       4.547  -0.607  -2.258  1.00  0.00     0.141 HD
BRANCH   9  11
HETATM   11  S   UNL     1       3.526   0.705  -0.820  1.00  0.00     0.276 S 
HETATM   12  O   UNL     1       4.695   1.512  -0.609  1.00  0.00    -0.194 OA
HETATM   13  O   UNL     1       2.494   0.518   0.160  1.00  0.00    -0.194 OA
BRANCH  11  14
HETATM   14  N   UNL     1       2.789   1.235  -2.215  1.00  0.00    -0.216 NA
HETATM   15  H   UNL     1       2.657   2.247  -2.162  1.00  0.00     0.137 HD
HETATM   16  H   UNL     1       1.892   0.759  -2.320  1.00  0.00     0.137 HD
ENDBRANCH  11  14
ENDBRANCH   9  11
ENDBRANCH   8   9
ENDBRANCH   1   8
BRANCH   4  17
HETATM   17  N   UNL     1       5.917  -6.683  -2.611  1.00  0.00    -0.363 N 
HETATM   18  C   UNL     1       4.940  -7.754  -2.394  1.00  0.00     0.150 C 
HETATM   19  C   UNL     1       5.606  -8.985  -1.769  1.00  0.00     0.187 C 
HETATM   20  O   UNL     1       6.767  -9.398  -2.514  1.00  0.00    -0.388 OA
HETATM   21  C   UNL     1       7.734  -8.336  -2.536  1.00  0.00     0.187 C 
HETATM   22  C   UNL     1       7.181  -7.080  -3.229  1.00  0.00     0.150 C 
ENDBRANCH   4  17
TORSDOF 5
