REMARK  5 active torsions:
REMARK  status: ('A' for Active; 'I' for Inactive)
REMARK    1  A    between atoms: O_2  and  C_3 
REMARK    2  A    between atoms: C_3  and  C_4 
REMARK    3  A    between atoms: C_4  and  N_5 
REMARK    4  A    between atoms: C_8  and  C_13 
REMARK       I    between atoms: C_13  and  N_15 
REMARK    5  A    between atoms: N_15  and  C_16 
ROOT
HETATM    1  N   UNL     1       4.786  -2.540   1.289  1.00  0.00    -0.255 N 
HETATM    2  N   UNL     1       5.837  -2.511   2.207  1.00  0.00    -0.290 N 
ATOM      3  HN  UNL     1       6.150  -1.641   2.638  1.00  0.00     0.187 HD
HETATM    4  C   UNL     1       6.395  -3.652   2.484  1.00  0.00     0.116 A 
HETATM    5  C   UNL     1       6.026  -4.950   1.885  1.00  0.00     0.042 A 
HETATM    6  C   UNL     1       4.997  -4.954   1.041  1.00  0.00     0.078 A 
HETATM    7  C   UNL     1       4.281  -3.706   0.714  1.00  0.00     0.262 A 
HETATM    8  O   UNL     1       3.300  -3.775  -0.022  1.00  0.00    -0.267 OA
ENDROOT
BRANCH   4   9
HETATM    9  C   UNL     1       7.532  -3.718   3.503  1.00  0.00     0.269 C 
HETATM   10  O   UNL     1       7.643  -4.719   4.200  1.00  0.00    -0.266 OA
HETATM   11  N   UNL     1       8.390  -2.640   3.513  1.00  0.00    -0.351 N 
HETATM   12  H   UNL     1       8.100  -1.820   2.994  1.00  0.00     0.163 HD
BRANCH  11  13
HETATM   13  C   UNL     1       9.590  -2.606   4.351  1.00  0.00     0.085 C 
HETATM   14  C   UNL     1      10.314  -1.257   4.237  1.00  0.00     0.025 C 
HETATM   15  C   UNL     1      10.963  -1.052   2.865  1.00  0.00     0.002 C 
HETATM   16  C   UNL     1      11.855  -2.224   2.451  1.00  0.00     0.004 C 
HETATM   17  C   UNL     1      11.128  -3.569   2.576  1.00  0.00    -0.017 C 
HETATM   18  C   UNL     1      12.041  -4.734   2.203  1.00  0.00     0.010 C 
HETATM   19  C   UNL     1      10.580  -3.735   4.000  1.00  0.00     0.029 C 
ENDBRANCH  11  13
ENDBRANCH   4   9
BRANCH   1  20
HETATM   20  C   UNL     1       4.134  -1.266   0.987  1.00  0.00     0.178 C 
BRANCH  20  21
HETATM   21  C   UNL     1       5.060  -0.262   0.302  1.00  0.00     0.189 C 
BRANCH  21  22
HETATM   22  O   UNL     1       5.497  -0.760  -0.965  1.00  0.00    -0.394 OA
HETATM   23  C   UNL     1       6.390   0.145  -1.600  1.00  0.00     0.201 C 
ENDBRANCH  21  22
ENDBRANCH  20  21
ENDBRANCH   1  20
TORSDOF 5
