REMARK  4 active torsions:
REMARK  status: ('A' for Active; 'I' for Inactive)
REMARK    1  A    between atoms: O_2  and  C_3 
REMARK    2  A    between atoms: C_3  and  C_4 
REMARK    3  A    between atoms: C_4  and  N_5 
REMARK    4  A    between atoms: C_6  and  N_18 
ROOT
HETATM    1  N   UNL     1       4.864   0.617  -2.527  1.00  0.00    -0.172 N 
HETATM    2  C   UNL     1       4.950   1.913  -3.035  1.00  0.00     0.684 A 
HETATM    3  N   UNL     1       5.318   1.875  -4.304  1.00  0.00    -0.174 N 
ATOM      4  HN  UNL     1       5.384   2.664  -4.948  1.00  0.00     0.186 HD
HETATM    5  C   UNL     1       5.590   0.572  -4.577  1.00  0.00     0.160 A 
HETATM    6  N   UNL     1       6.062   0.057  -5.769  1.00  0.00    -0.287 N 
HETATM    7  C   UNL     1       6.345   0.886  -6.920  1.00  0.00     0.163 C 
HETATM    8  C   UNL     1       6.281  -1.313  -5.869  1.00  0.00     0.330 A 
HETATM    9  O   UNL     1       6.706  -1.864  -6.887  1.00  0.00    -0.246 OA
HETATM   10  N   UNL     1       6.006  -2.077  -4.756  1.00  0.00    -0.273 N 
HETATM   11  C   UNL     1       5.528  -1.642  -3.545  1.00  0.00     0.280 A 
HETATM   12  O   UNL     1       5.311  -2.425  -2.627  1.00  0.00    -0.265 OA
HETATM   13  C   UNL     1       5.329  -0.230  -3.503  1.00  0.00     0.164 A 
HETATM   14  H   UNL     1       6.172  -3.068  -4.845  1.00  0.00     0.173 HD
ENDROOT
BRANCH   2  15
HETATM   15  N   UNL     1       4.632   3.039  -2.334  1.00  0.00    -0.217 N 
HETATM   16  C   UNL     1       3.986   4.153  -3.037  1.00  0.00     0.141 C 
HETATM   17  C   UNL     1       4.661   5.491  -2.720  1.00  0.00     0.024 C 
HETATM   18  C   UNL     1       4.861   5.726  -1.218  1.00  0.00    -0.015 C 
HETATM   19  C   UNL     1       3.543   5.986  -0.483  1.00  0.00     0.010 C 
HETATM   20  C   UNL     1       5.615   4.533  -0.633  1.00  0.00     0.024 C 
HETATM   21  C   UNL     1       4.917   3.208  -0.913  1.00  0.00     0.141 C 
ENDBRANCH   2  15
BRANCH   1  22
HETATM   22  C   UNL     1       4.281   0.191  -1.271  1.00  0.00     0.174 C 
BRANCH  22  23
HETATM   23  C   UNL     1       2.814   0.574  -1.112  1.00  0.00     0.187 C 
BRANCH  23  24
HETATM   24  O   UNL     1       2.408   0.268   0.224  1.00  0.00    -0.394 OA
HETATM   25  C   UNL     1       1.065   0.669   0.460  1.00  0.00     0.201 C 
ENDBRANCH  23  24
ENDBRANCH  22  23
ENDBRANCH   1  22
TORSDOF 4
