REMARK  5 active torsions:
REMARK  status: ('A' for Active; 'I' for Inactive)
REMARK    1  A    between atoms: C_4  and  C_5 
REMARK    2  A    between atoms: C_4  and  N_16 
REMARK    3  A    between atoms: C_5  and  N_6 
REMARK       I    between atoms: N_6  and  C_7 
REMARK    4  A    between atoms: C_7  and  C_9 
REMARK    5  A    between atoms: C_9  and  N_10 
ROOT
HETATM    1  C   UNL     1       2.397   2.097   0.368  1.00  0.00     0.145 C 
ENDROOT
BRANCH   1   2
HETATM    2  C   UNL     1       2.407   0.792  -1.793  1.00  0.00     0.073 A 
HETATM    3  C   UNL     1       2.360  -0.425   0.418  1.00  0.00    -0.014 A 
HETATM    4  C   UNL     1       0.828  -0.448   0.519  1.00  0.00     0.007 C 
HETATM    5  C   UNL     1       2.955   0.809  -0.336  1.00  0.00     0.065 A 
BRANCH   2   6
HETATM    6  N   UNL     1       4.445   0.826  -0.443  1.00  0.00    -0.405 N 
HETATM    7  C   UNL     1       5.101  -0.309  -1.128  1.00  0.00     0.143 C 
HETATM    8  C   UNL     1       5.550  -1.456  -0.205  1.00  0.00     0.187 C 
HETATM    9  O   UNL     1       6.367  -0.981   0.869  1.00  0.00    -0.388 OA
HETATM   10  C   UNL     1       5.680   0.023   1.623  1.00  0.00     0.187 C 
HETATM   11  C   UNL     1       5.252   1.198   0.733  1.00  0.00     0.143 C 
ENDBRANCH   2   6
ENDBRANCH   1   2
BRANCH   1  12
HETATM   12  N   UNL     1       2.854   3.356  -0.186  1.00  0.00    -0.358 N 
HETATM   13  C   UNL     1       2.199   4.523   0.165  1.00  0.00     0.237 C 
HETATM   14  O   UNL     1       1.189   4.535   0.869  1.00  0.00    -0.272 OA
HETATM   15  H   UNL     1       3.833   3.412  -0.452  1.00  0.00     0.162 HD
BRANCH  13  16
HETATM   16  C   UNL     1       2.775   5.784  -0.414  1.00  0.00     0.250 C 
BRANCH  16  17
HETATM   17  N   UNL     1       3.644   6.458   0.528  1.00  0.00    -0.295 N 
HETATM   18  C   UNL     1       3.288   7.410   1.436  1.00  0.00     0.112 A 
HETATM   19  C   UNL     1       4.457   7.825   2.028  1.00  0.00     0.037 A 
HETATM   20  C   UNL     1       5.461   7.058   1.407  1.00  0.00     0.108 A 
HETATM   21  N   UNL     1       4.967   6.221   0.494  1.00  0.00    -0.310 N 
ATOM     22  HN  UNL     1       5.473   5.557  -0.092  1.00  0.00     0.186 HD
ENDBRANCH  16  17
ENDBRANCH  13  16
ENDBRANCH   1  12
TORSDOF 5
