REMARK  3 active torsions:
REMARK  status: ('A' for Active; 'I' for Inactive)
REMARK    1  A    between atoms: O_2  and  C_3 
REMARK    2  A    between atoms: C_10  and  N_11 
REMARK       I    between atoms: N_11  and  C_12 
REMARK       I    between atoms: C_12  and  N_14 
REMARK    3  A    between atoms: N_14  and  C_15 
ROOT
HETATM    1  N   UNL     1       4.886  -0.353  -0.927  1.00  0.00    -0.292 N 
HETATM    2  C   UNL     1       4.590  -1.499  -0.252  1.00  0.00     0.322 C 
HETATM    3  O   UNL     1       5.275  -2.505  -0.430  1.00  0.00    -0.247 OA
HETATM    4  N   UNL     1       3.591  -1.428   0.672  1.00  0.00    -0.338 N 
HETATM    5  H   UNL     1       5.741  -0.393  -1.465  1.00  0.00     0.172 HD
HETATM    6  H   UNL     1       2.957  -0.638   0.553  1.00  0.00     0.164 HD
ENDROOT
BRANCH   1   7
HETATM    7  C   UNL     1       4.211   0.874  -0.921  1.00  0.00     0.143 A 
HETATM    8  C   UNL     1       4.859   1.990  -1.471  1.00  0.00     0.112 A 
HETATM    9  C   UNL     1       4.168   3.201  -1.477  1.00  0.00     0.042 A 
HETATM   10  C   UNL     1       2.884   3.268  -0.945  1.00  0.00     0.027 A 
HETATM   11  C   UNL     1       2.312   2.116  -0.422  1.00  0.00     0.007 A 
HETATM   12  C   UNL     1       0.934   2.132   0.164  1.00  0.00     0.068 C 
HETATM   13  N   UNL     1       2.965   0.932  -0.391  1.00  0.00    -0.344 N 
ATOM     14  HN  UNL     1       2.532   0.105   0.020  1.00  0.00     0.167 HD
BRANCH   8  15
HETATM   15  O   UNL     1       6.130   1.820  -1.962  1.00  0.00    -0.352 OA
HETATM   16  C   UNL     1       6.932   2.999  -2.014  1.00  0.00     0.210 C 
ENDBRANCH   8  15
ENDBRANCH   1   7
BRANCH   4  17
HETATM   17  C   UNL     1       3.232  -2.527   1.532  1.00  0.00     0.086 C 
HETATM   18  C   UNL     1       2.093  -3.388   0.986  1.00  0.00     0.025 C 
HETATM   19  C   UNL     1       1.384  -3.959   2.218  1.00  0.00     0.002 C 
HETATM   20  C   UNL     1       2.077  -3.344   3.431  1.00  0.00     0.002 C 
HETATM   21  C   UNL     1       2.712  -2.072   2.892  1.00  0.00     0.025 C 
ENDBRANCH   4  17
TORSDOF 3
