REMARK  3 active torsions:
REMARK  status: ('A' for Active; 'I' for Inactive)
REMARK    1  A    between atoms: C_5  and  N_6 
REMARK       I    between atoms: N_6  and  C_7 
REMARK       I    between atoms: C_7  and  N_9 
REMARK    2  A    between atoms: N_9  and  C_10 
REMARK    3  A    between atoms: C_13  and  N_17 
ROOT
HETATM    1  C   UNL     1       5.633   0.781  -5.815  1.00  0.00     0.051 A 
HETATM    2  C   UNL     1       6.014   1.817  -6.647  1.00  0.00     0.035 A 
HETATM    3  C   UNL     1       6.796   1.534  -7.767  1.00  0.00     0.051 A 
HETATM    4  C   UNL     1       7.131   0.220  -8.101  1.00  0.00     0.103 A 
HETATM    5  N   UNL     1       6.733  -0.793  -7.299  1.00  0.00    -0.350 N 
ATOM      6  HN  UNL     1       6.961  -1.759  -7.532  1.00  0.00     0.166 HD
HETATM    7  C   UNL     1       6.023  -0.501  -6.176  1.00  0.00     0.119 A 
ENDROOT
BRANCH   1   8
HETATM    8  N   UNL     1       4.878   1.080  -4.666  1.00  0.00    -0.308 N 
HETATM    9  C   UNL     1       5.143   0.501  -3.446  1.00  0.00     0.321 C 
HETATM   10  N   UNL     1       4.222   0.872  -2.502  1.00  0.00    -0.330 N 
HETATM   11  O   UNL     1       6.085  -0.242  -3.210  1.00  0.00    -0.247 OA
HETATM   12  H   UNL     1       3.558   1.594  -2.740  1.00  0.00     0.165 HD
HETATM   13  H   UNL     1       4.493   2.012  -4.611  1.00  0.00     0.170 HD
BRANCH  10  14
HETATM   14  C   UNL     1       4.421   0.627  -1.080  1.00  0.00     0.180 C 
HETATM   15  C   UNL     1       4.563  -0.842  -0.677  1.00  0.00     0.054 C 
HETATM   16  C   UNL     1       3.142  -1.301  -0.424  1.00  0.00     0.128 C 
HETATM   17  N   UNL     1       2.440  -0.113  -0.004  1.00  0.00    -0.355 N 
HETATM   18  C   UNL     1       1.001  -0.110   0.124  1.00  0.00     0.152 C 
HETATM   19  C   UNL     1       3.110   1.042  -0.413  1.00  0.00     0.242 C 
HETATM   20  O   UNL     1       2.643   2.175  -0.435  1.00  0.00    -0.271 OA
ENDBRANCH  10  14
ENDBRANCH   1   8
BRANCH   4  21
HETATM   21  N   UNL     1       7.912  -0.061  -9.204  1.00  0.00    -0.363 N 
HETATM   22  C   UNL     1       7.923   0.780 -10.408  1.00  0.00     0.150 C 
HETATM   23  C   UNL     1       7.277   0.043 -11.591  1.00  0.00     0.187 C 
HETATM   24  O   UNL     1       7.892  -1.232 -11.820  1.00  0.00    -0.388 OA
HETATM   25  C   UNL     1       7.744  -2.063 -10.654  1.00  0.00     0.187 C 
HETATM   26  C   UNL     1       8.408  -1.430  -9.422  1.00  0.00     0.150 C 
ENDBRANCH   4  21
TORSDOF 3
