REMARK  5 active torsions:
REMARK  status: ('A' for Active; 'I' for Inactive)
REMARK    1  A    between atoms: N_3  and  C_20 
REMARK    2  A    between atoms: C_7  and  N_10 
REMARK    3  A    between atoms: C_20  and  C_22 
REMARK    4  A    between atoms: C_22  and  C_27 
REMARK    5  A    between atoms: C_27  and  O_28 
ROOT
HETATM    1  C   UNL     1       0.249  -0.779   0.051  1.00  0.00     0.122 A 
HETATM    2  N   UNL     1       1.447   1.088   0.064  1.00  0.00    -0.326 N 
HETATM    3  C   UNL     1       0.155   0.612   0.047  1.00  0.00     0.140 A 
HETATM    4  N   UNL     1       1.587  -1.140   0.097  1.00  0.00    -0.346 N 
ATOM      5  HN  UNL     1       1.969  -2.086   0.106  1.00  0.00     0.167 HD
HETATM    6  C   UNL     1      -0.977  -1.519  -0.004  1.00  0.00     0.135 A 
HETATM    7  C   UNL     1       2.265  -0.009   0.126  1.00  0.00     0.185 A 
HETATM    8  N   UNL     1      -0.961   1.359  -0.011  1.00  0.00    -0.336 N 
ATOM      9  HN  UNL     1      -0.976   2.379  -0.006  1.00  0.00     0.168 HD
HETATM   10  N   UNL     1      -2.118  -0.768  -0.079  1.00  0.00    -0.337 N 
ATOM     11  HN  UNL     1      -3.025  -1.231  -0.137  1.00  0.00     0.168 HD
HETATM   12  C   UNL     1      -2.054   0.579  -0.077  1.00  0.00     0.183 A 
ENDROOT
BRANCH   6  13
HETATM   13  N   UNL     1      -1.143  -2.908   0.072  1.00  0.00    -0.363 N 
HETATM   14  C   UNL     1      -2.327  -3.459  -0.611  1.00  0.00     0.151 C 
HETATM   15  C   UNL     1      -2.797  -4.769   0.062  1.00  0.00     0.127 C 
HETATM   16  N   UNL     1      -3.639  -5.555  -0.824  1.00  0.00    -0.335 N 
HETATM   17  C   UNL     1      -1.630  -5.727   0.288  1.00  0.00     0.114 C 
HETATM   18  C   UNL     1      -2.843  -6.402  -1.591  1.00  0.00     0.318 C 
HETATM   19  H   UNL     1      -4.515  -5.236  -1.221  1.00  0.00     0.164 HD
HETATM   20  O   UNL     1      -3.171  -6.891  -2.656  1.00  0.00    -0.247 OA
HETATM   21  N   UNL     1      -1.593  -6.473  -0.965  1.00  0.00    -0.332 N 
HETATM   22  C   UNL     1      -0.414  -6.868  -1.695  1.00  0.00     0.155 C 
HETATM   23  C   UNL     1      -0.353  -5.071   0.808  1.00  0.00     0.047 C 
HETATM   24  C   UNL     1       0.021  -3.790   0.068  1.00  0.00     0.126 C 
ENDBRANCH   6  13
BRANCH   2  25
HETATM   25  C   UNL     1       1.865   2.498   0.022  1.00  0.00     0.143 C 
BRANCH  25  26
HETATM   26  C   UNL     1       2.101   3.084  -1.417  1.00  0.00     0.001 C 
HETATM   27  C   UNL     1       3.382   2.454  -2.027  1.00  0.00     0.039 C 
HETATM   28  C   UNL     1       4.645   3.076  -1.431  1.00  0.00     0.168 C 
HETATM   29  O   UNL     1       4.698   4.457  -1.762  1.00  0.00    -0.391 OA
HETATM   30  C   UNL     1       3.661   5.196  -1.129  1.00  0.00     0.168 C 
HETATM   31  C   UNL     1       2.280   4.641  -1.454  1.00  0.00     0.039 C 
BRANCH  26  32
HETATM   32  C   UNL     1       0.848   2.806  -2.286  1.00  0.00     0.175 C 
BRANCH  32  33
HETATM   33  O   UNL     1      -0.292   3.451  -1.717  1.00  0.00    -0.400 OA
HETATM   34  H   UNL     1      -0.657   2.859  -1.026  1.00  0.00     0.209 HD
ENDBRANCH  32  33
ENDBRANCH  26  32
ENDBRANCH  25  26
ENDBRANCH   2  25
TORSDOF 5
