REMARK  4 active torsions:
REMARK  status: ('A' for Active; 'I' for Inactive)
REMARK    1  A    between atoms: C_2  and  N_3 
REMARK    2  A    between atoms: C_2  and  C_17 
REMARK       I    between atoms: N_3  and  C_4 
REMARK    3  A    between atoms: C_4  and  C_6 
REMARK    4  A    between atoms: C_6  and  C_7 
ROOT
HETATM    1  N   UNL     1       2.504  -1.062   1.200  1.00  0.00    -0.356 N 
HETATM    2  C   UNL     1       2.709  -0.662   2.501  1.00  0.00     0.222 C 
HETATM    3  O   UNL     1       2.735   0.512   2.856  1.00  0.00    -0.273 OA
HETATM    4  H   UNL     1       2.541  -2.055   0.987  1.00  0.00     0.162 HD
ENDROOT
BRANCH   2   5
HETATM    5  C   UNL     1       2.934  -1.806   3.475  1.00  0.00     0.149 C 
BRANCH   5   6
HETATM    6  C   UNL     1       4.403  -2.073   3.618  1.00  0.00     0.041 A 
HETATM    7  C   UNL     1       5.238  -1.570   4.549  1.00  0.00     0.018 A 
HETATM    8  C   UNL     1       4.816  -0.544   5.571  1.00  0.00     0.069 C 
HETATM    9  N   UNL     1       6.563  -1.930   4.667  1.00  0.00    -0.349 N 
HETATM   10  C   UNL     1       7.028  -2.807   3.842  1.00  0.00     0.080 A 
ATOM     11  HN  UNL     1       7.158  -1.516   5.384  1.00  0.00     0.167 HD
HETATM   12  C   UNL     1       8.456  -3.265   3.931  1.00  0.00     0.089 C 
HETATM   13  N   UNL     1       6.284  -3.370   2.850  1.00  0.00    -0.313 N 
HETATM   14  C   UNL     1       4.980  -3.035   2.649  1.00  0.00     0.255 A 
HETATM   15  H   UNL     1       6.689  -4.030   2.204  1.00  0.00     0.170 HD
HETATM   16  O   UNL     1       4.321  -3.507   1.724  1.00  0.00    -0.268 OA
ENDBRANCH   5   6
ENDBRANCH   2   5
BRANCH   1  17
HETATM   17  C   UNL     1       2.296  -0.119   0.102  1.00  0.00     0.084 C 
HETATM   18  C   UNL     1       0.797   0.098  -0.099  1.00  0.00     0.032 C 
BRANCH  17  19
HETATM   19  C   UNL     1       2.985  -0.650  -1.168  1.00  0.00     0.012 C 
HETATM   20  C   UNL     1       4.513  -0.833  -0.989  1.00  0.00     0.011 C 
HETATM   21  C   UNL     1       5.099  -0.059  -2.180  1.00  0.00    -0.014 C 
HETATM   22  C   UNL     1       4.905   1.448  -1.928  1.00  0.00     0.005 C 
HETATM   23  C   UNL     1       4.069  -0.344  -3.271  1.00  0.00     0.010 C 
HETATM   24  C   UNL     1       3.410   1.655  -2.206  1.00  0.00     0.005 C 
HETATM   25  C   UNL     1       2.905   0.224  -2.449  1.00  0.00    -0.008 C 
ENDBRANCH  17  19
ENDBRANCH   1  17
TORSDOF 4
