REMARK  4 active torsions:
REMARK  status: ('A' for Active; 'I' for Inactive)
REMARK    1  A    between atoms: C_2  and  C_3 
REMARK    2  A    between atoms: C_2  and  N_11 
REMARK    3  A    between atoms: C_3  and  N_4 
REMARK    4  A    between atoms: N_11  and  C_12 
ROOT
HETATM    1  C   UNL     1       2.726   1.577  -0.358  1.00  0.00     0.044 C 
HETATM    2  C   UNL     1       2.378   0.110  -0.087  1.00  0.00     0.236 C 
ENDROOT
BRANCH   2   3
HETATM    3  C   UNL     1       0.843  -0.038  -0.024  1.00  0.00     0.184 C 
BRANCH   3   4
HETATM    4  N   UNL     1       0.407  -1.341   0.427  1.00  0.00    -0.285 N 
HETATM    5  C   UNL     1       0.341  -2.493  -0.292  1.00  0.00     0.201 A 
HETATM    6  N   UNL     1      -0.201  -3.441   0.437  1.00  0.00    -0.346 N 
HETATM    7  C   UNL     1      -0.457  -2.804   1.618  1.00  0.00     0.198 A 
ATOM      8  HN  UNL     1      -0.385  -4.412   0.184  1.00  0.00     0.167 HD
HETATM    9  N   UNL     1      -0.115  -1.513   1.659  1.00  0.00    -0.293 N 
ATOM     10  HN  UNL     1      -0.220  -0.839   2.417  1.00  0.00     0.188 HD
ENDBRANCH   3   4
ENDBRANCH   2   3
BRANCH   2  11
HETATM   11  N   UNL     1       2.953  -0.772  -1.122  1.00  0.00     0.094 N 
HETATM   12  H   UNL     1       2.606  -0.503  -2.044  1.00  0.00     0.316 HD
BRANCH  11  13
HETATM   13  C   UNL     1       4.427  -0.837  -1.179  1.00  0.00     0.221 C 
HETATM   14  C   UNL     1       4.833  -1.849  -2.270  1.00  0.00     0.036 C 
HETATM   15  C   UNL     1       4.560  -3.306  -1.880  1.00  0.00     0.007 C 
HETATM   16  C   UNL     1       5.150  -3.697  -0.511  1.00  0.00    -0.015 C 
HETATM   17  C   UNL     1       6.669  -3.893  -0.611  1.00  0.00     0.010 C 
HETATM   18  C   UNL     1       4.714  -2.672   0.563  1.00  0.00    -0.013 C 
HETATM   19  C   UNL     1       5.238  -2.993   1.962  1.00  0.00     0.010 C 
HETATM   20  C   UNL     1       5.094  -1.241   0.149  1.00  0.00     0.040 C 
ENDBRANCH  11  13
ENDBRANCH   2  11
TORSDOF 4
