REMARK  5 active torsions:
REMARK  status: ('A' for Active; 'I' for Inactive)
REMARK    1  A    between atoms: N_5  and  C_6 
REMARK    2  A    between atoms: C_6  and  C_7 
REMARK    3  A    between atoms: C_7  and  N_8 
REMARK       I    between atoms: N_8  and  C_9 
REMARK    4  A    between atoms: C_9  and  C_11 
REMARK    5  A    between atoms: C_11  and  N_12 
ROOT
HETATM    1  N   UNL     1       6.663   0.049  -4.014  1.00  0.00    -0.358 N 
HETATM    2  C   UNL     1       7.313  -1.115  -4.374  1.00  0.00     0.237 C 
HETATM    3  O   UNL     1       6.737  -2.172  -4.616  1.00  0.00    -0.272 OA
HETATM    4  H   UNL     1       7.200   0.912  -4.119  1.00  0.00     0.162 HD
ENDROOT
BRANCH   1   5
HETATM    5  C   UNL     1       5.213   0.149  -3.993  1.00  0.00     0.152 C 
BRANCH   5   6
HETATM    6  C   UNL     1       4.582  -0.744  -2.908  1.00  0.00     0.292 C 
BRANCH   6   7
HETATM    7  N   UNL     1       3.109  -0.705  -2.840  1.00  0.00     0.090 N 
HETATM    8  C   UNL     1       2.557   0.611  -2.501  1.00  0.00     0.273 C 
HETATM    9  C   UNL     1       2.829   1.037  -1.056  1.00  0.00     0.034 C 
HETATM   10  C   UNL     1       2.350  -0.010  -0.041  1.00  0.00    -0.015 C 
HETATM   11  C   UNL     1       0.826   0.006   0.099  1.00  0.00     0.010 C 
HETATM   12  C   UNL     1       2.860  -1.404  -0.432  1.00  0.00     0.034 C 
HETATM   13  C   UNL     1       2.606  -1.731  -1.909  1.00  0.00     0.273 C 
ENDBRANCH   6   7
ENDBRANCH   5   6
ENDBRANCH   1   5
BRANCH   2  14
HETATM   14  C   UNL     1       8.819  -1.018  -4.387  1.00  0.00     0.251 C 
BRANCH  14  15
HETATM   15  N   UNL     1       9.243  -0.057  -5.383  1.00  0.00    -0.288 N 
HETATM   16  N   UNL     1       9.279   1.248  -5.037  1.00  0.00    -0.303 N 
HETATM   17  C   UNL     1       9.574   1.879  -6.178  1.00  0.00     0.024 A 
ATOM     18  HN  UNL     1       9.118   1.658  -4.117  1.00  0.00     0.186 HD
HETATM   19  C   UNL     1       9.682   3.356  -6.216  1.00  0.00     0.070 C 
HETATM   20  C   UNL     1       9.721   0.971  -7.251  1.00  0.00     0.052 A 
HETATM   21  C   UNL     1       9.496  -0.277  -6.711  1.00  0.00     0.027 A 
HETATM   22  C   UNL     1       9.467  -1.619  -7.342  1.00  0.00     0.070 C 
ENDBRANCH  14  15
ENDBRANCH   2  14
TORSDOF 5
