REMARK  4 active torsions:
REMARK  status: ('A' for Active; 'I' for Inactive)
REMARK       I    between atoms: C_2  and  N_3 
REMARK       I    between atoms: C_2  and  N_13 
REMARK    1  A    between atoms: N_3  and  C_4 
REMARK    2  A    between atoms: N_7  and  C_10 
REMARK    3  A    between atoms: N_13  and  C_14 
REMARK    4  A    between atoms: C_20  and  N_21 
ROOT
HETATM    1  O   UNL     1       1.203  -0.649   0.080  1.00  0.00    -0.254 OA
HETATM    2  C   UNL     1       2.344  -0.279  -0.157  1.00  0.00     0.299 C 
HETATM    3  N   UNL     1       2.960   0.775   0.483  1.00  0.00    -0.343 N 
HETATM    4  N   UNL     1       3.190  -0.795  -1.124  1.00  0.00    -0.207 NA
HETATM    5  H   UNL     1       3.949   0.624   0.629  1.00  0.00     0.164 HD
HETATM    6  H   UNL     1       3.561  -0.018  -1.656  1.00  0.00     0.138 HD
ENDROOT
BRANCH   4   7
HETATM    7  C   UNL     1       2.712  -1.845  -1.946  1.00  0.00     0.060 A 
HETATM    8  C   UNL     1       1.720  -1.541  -2.887  1.00  0.00     0.029 A 
HETATM    9  C   UNL     1       1.185  -2.554  -3.666  1.00  0.00     0.019 A 
HETATM   10  C   UNL     1       1.691  -3.825  -3.491  1.00  0.00     0.090 A 
HETATM   11  N   UNL     1       2.667  -4.142  -2.611  1.00  0.00    -0.351 N 
HETATM   12  C   UNL     1       3.188  -3.169  -1.820  1.00  0.00     0.125 A 
ATOM     13  HN  UNL     1       3.008  -5.101  -2.542  1.00  0.00     0.166 HD
BRANCH  12  14
HETATM   14  N   UNL     1       4.135  -3.559  -0.896  1.00  0.00    -0.366 N 
HETATM   15  C   UNL     1       5.179  -2.709  -0.350  1.00  0.00     0.124 C 
HETATM   16  C   UNL     1       6.034  -3.640   0.513  1.00  0.00     0.021 C 
HETATM   17  C   UNL     1       5.323  -4.986   0.475  1.00  0.00     0.021 C 
HETATM   18  C   UNL     1       4.543  -4.954  -0.831  1.00  0.00     0.124 C 
ENDBRANCH  12  14
ENDBRANCH   4   7
BRANCH   3  19
HETATM   19  C   UNL     1       2.249   1.586   1.471  1.00  0.00     0.089 C 
HETATM   20  C   UNL     1       1.079   2.341   0.832  1.00  0.00     0.055 C 
HETATM   21  C   UNL     1       1.607   3.342  -0.192  1.00  0.00     0.275 C 
HETATM   22  N   UNL     1       2.505   4.337   0.412  1.00  0.00     0.093 N 
HETATM   23  C   UNL     1       3.615   3.707   1.131  1.00  0.00     0.275 C 
HETATM   24  C   UNL     1       3.193   2.608   2.117  1.00  0.00     0.055 C 
BRANCH  22  25
HETATM   25  C   UNL     1       1.767   5.333   1.215  1.00  0.00     0.223 A 
HETATM   26  C   UNL     1       0.786   6.239   0.513  1.00  0.00     0.038 A 
HETATM   27  C   UNL     1       2.066   6.797   1.057  1.00  0.00     0.038 A 
ENDBRANCH  22  25
ENDBRANCH   3  19
TORSDOF 4
