REMARK  4 active torsions:
REMARK  status: ('A' for Active; 'I' for Inactive)
REMARK       I    between atoms: N_2  and  C_3 
REMARK    1  A    between atoms: C_3  and  C_5 
REMARK    2  A    between atoms: N_10  and  C_11 
REMARK    3  A    between atoms: C_11  and  C_12 
REMARK       I    between atoms: C_12  and  N_14 
REMARK    4  A    between atoms: N_14  and  C_15 
ROOT
HETATM    1  C   UNL     1       6.805  -3.981  -4.993  1.00  0.00     0.216 C 
HETATM    2  C   UNL     1       6.195  -3.059  -5.955  1.00  0.00    -0.098 C 
HETATM    3  C   UNL     1       5.708  -2.347  -6.795  1.00  0.00     0.014 C 
ENDROOT
BRANCH   1   4
HETATM    4  N   UNL     1       6.796  -3.444  -3.657  1.00  0.00    -0.349 N 
HETATM    5  C   UNL     1       7.355  -4.160  -2.625  1.00  0.00     0.236 C 
HETATM    6  O   UNL     1       7.855  -5.272  -2.803  1.00  0.00    -0.272 OA
HETATM    7  H   UNL     1       6.379  -2.538  -3.477  1.00  0.00     0.163 HD
BRANCH   5   8
HETATM    8  C   UNL     1       7.301  -3.546  -1.220  1.00  0.00     0.234 C 
BRANCH   8   9
HETATM    9  N   UNL     1       6.703  -2.213  -1.122  1.00  0.00    -0.315 N 
HETATM   10  C   UNL     1       7.542  -1.104  -1.171  1.00  0.00     0.247 A 
HETATM   11  C   UNL     1       6.867   0.219  -1.070  1.00  0.00     0.075 A 
HETATM   12  O   UNL     1       8.760  -1.150  -1.304  1.00  0.00    -0.268 OA
HETATM   13  C   UNL     1       5.533   0.301  -0.962  1.00  0.00     0.024 A 
HETATM   14  C   UNL     1       4.722  -0.899  -0.921  1.00  0.00     0.047 A 
HETATM   15  C   UNL     1       5.326  -2.098  -0.995  1.00  0.00     0.111 A 
BRANCH  14  16
HETATM   16  C   UNL     1       3.226  -0.912  -0.920  1.00  0.00     0.252 C 
HETATM   17  N   UNL     1       2.610   0.199  -0.400  1.00  0.00    -0.361 N 
HETATM   18  C   UNL     1       1.171   0.273  -0.370  1.00  0.00     0.149 C 
HETATM   19  H   UNL     1       3.143   0.911   0.078  1.00  0.00     0.162 HD
HETATM   20  O   UNL     1       2.598  -1.874  -1.357  1.00  0.00    -0.268 OA
ENDBRANCH  14  16
ENDBRANCH   8   9
ENDBRANCH   5   8
ENDBRANCH   1   4
TORSDOF 4
