REMARK  5 active torsions:
REMARK  status: ('A' for Active; 'I' for Inactive)
REMARK    1  A    between atoms: C_2  and  O_3 
REMARK    2  A    between atoms: O_3  and  C_4 
REMARK    3  A    between atoms: C_4  and  C_5 
REMARK    4  A    between atoms: C_5  and  N_6 
REMARK    5  A    between atoms: C_7  and  N_19 
ROOT
HETATM    1  N   UNL     1       6.314  -2.141   1.723  1.00  0.00    -0.172 N 
HETATM    2  C   UNL     1       7.105  -0.990   1.638  1.00  0.00     0.685 C 
HETATM    3  N   UNL     1       8.384  -1.323   1.739  1.00  0.00    -0.174 N 
ATOM      4  HN  UNL     1       9.178  -0.687   1.811  1.00  0.00     0.186 HD
HETATM    5  C   UNL     1       8.426  -2.678   1.727  1.00  0.00     0.160 C 
HETATM    6  N   UNL     1       9.556  -3.474   1.729  1.00  0.00    -0.287 N 
HETATM    7  C   UNL     1      10.896  -2.931   1.708  1.00  0.00     0.163 C 
HETATM    8  C   UNL     1       9.404  -4.856   1.715  1.00  0.00     0.330 C 
HETATM    9  O   UNL     1      10.346  -5.649   1.700  1.00  0.00    -0.246 OA
HETATM   10  N   UNL     1       8.116  -5.347   1.697  1.00  0.00    -0.273 N 
HETATM   11  C   UNL     1       6.964  -4.618   1.549  1.00  0.00     0.280 C 
HETATM   12  O   UNL     1       5.888  -5.160   1.309  1.00  0.00    -0.265 OA
HETATM   13  C   UNL     1       7.174  -3.214   1.660  1.00  0.00     0.164 C 
HETATM   14  H   UNL     1       8.031  -6.349   1.625  1.00  0.00     0.173 HD
ENDROOT
BRANCH   2  15
HETATM   15  N   UNL     1       6.666   0.291   1.462  1.00  0.00    -0.214 N 
HETATM   16  C   UNL     1       5.386   0.677   0.869  1.00  0.00     0.171 C 
HETATM   17  C   UNL     1       5.470   2.019   0.107  1.00  0.00     0.290 C 
HETATM   18  N   UNL     1       6.040   3.114   0.912  1.00  0.00     0.086 N 
HETATM   19  C   UNL     1       7.389   2.694   1.343  1.00  0.00     0.290 C 
HETATM   20  H   UNL     1       5.465   3.231   1.747  1.00  0.00     0.316 HD
HETATM   21  C   UNL     1       7.417   1.368   2.137  1.00  0.00     0.171 C 
ENDBRANCH   2  15
BRANCH   1  22
HETATM   22  C   UNL     1       4.872  -2.245   1.836  1.00  0.00     0.174 C 
BRANCH  22  23
HETATM   23  C   UNL     1       4.308  -3.104   2.971  1.00  0.00     0.188 C 
BRANCH  23  24
HETATM   24  O   UNL     1       4.637  -2.594   4.268  1.00  0.00    -0.390 OA
BRANCH  24  25
HETATM   25  C   UNL     1       4.172  -3.506   5.272  1.00  0.00     0.163 C 
HETATM   26  C   UNL     1       4.501  -2.988   6.656  1.00  0.00     0.033 C 
ENDBRANCH  24  25
ENDBRANCH  23  24
ENDBRANCH  22  23
ENDBRANCH   1  22
TORSDOF 5
