REMARK  6 active torsions:
REMARK  status: ('A' for Active; 'I' for Inactive)
REMARK    1  A    between atoms: C_8  and  C_9 
REMARK    2  A    between atoms: C_9  and  N_10 
REMARK    3  A    between atoms: N_10  and  C_11 
REMARK    4  A    between atoms: C_11  and  C_12 
REMARK    5  A    between atoms: C_12  and  N_13 
REMARK    6  A    between atoms: C_12  and  C_16 
ROOT
HETATM    1  C   UNL     1      -0.582  -2.803   0.086  1.00  0.00     0.310 C 
ENDROOT
BRANCH   1   2
HETATM    2  N   UNL     1       0.828  -2.497   0.393  1.00  0.00     0.086 N 
HETATM    3  H   UNL     1       0.862  -1.701   1.030  1.00  0.00     0.315 HD
BRANCH   2   4
HETATM    4  C   UNL     1       1.604  -2.166  -0.805  1.00  0.00     0.279 C 
BRANCH   4   5
HETATM    5  C   UNL     1       3.066  -1.707  -0.506  1.00  0.00     0.045 C 
HETATM    6  C   UNL     1       4.048  -2.833  -0.026  1.00  0.00    -0.009 C 
HETATM    7  C   UNL     1       3.510  -4.270  -0.122  1.00  0.00     0.011 C 
HETATM    8  C   UNL     1       4.754  -2.663   1.331  1.00  0.00     0.009 C 
HETATM    9  C   UNL     1       4.650  -1.330   2.062  1.00  0.00     0.028 C 
HETATM   10  C   UNL     1       3.839  -0.272   1.422  1.00  0.00    -0.024 C 
HETATM   11  C   UNL     1       3.132  -0.404   0.288  1.00  0.00    -0.081 C 
HETATM   12  C   UNL     1       2.397   0.788  -0.269  1.00  0.00     0.043 C 
ENDBRANCH   4   5
ENDBRANCH   2   4
ENDBRANCH   1   2
BRANCH   1  13
HETATM   13  C   UNL     1      -0.915  -4.090  -0.765  1.00  0.00     0.285 C 
BRANCH  13  14
HETATM   14  N   UNL     1      -0.342  -5.352  -0.234  1.00  0.00     0.090 N 
HETATM   15  C   UNL     1      -0.884  -5.777   1.052  1.00  0.00     0.310 C 
HETATM   16  C   UNL     1      -0.344  -6.446  -1.200  1.00  0.00     0.310 C 
ENDBRANCH  13  14
BRANCH  13  17
HETATM   17  C   UNL     1      -2.408  -4.203  -1.007  1.00  0.00     0.011 A 
HETATM   18  C   UNL     1      -3.469  -3.853  -0.134  1.00  0.00     0.118 A 
HETATM   19  N   UNL     1      -4.675  -4.070  -0.662  1.00  0.00    -0.310 N 
HETATM   20  N   UNL     1      -4.402  -4.569  -1.876  1.00  0.00    -0.308 N 
ATOM     21  HN  UNL     1      -5.588  -3.897  -0.242  1.00  0.00     0.186 HD
HETATM   22  C   UNL     1      -5.473  -4.955  -2.761  1.00  0.00     0.177 C 
HETATM   23  C   UNL     1      -3.064  -4.655  -2.139  1.00  0.00     0.120 A 
ENDBRANCH  13  17
ENDBRANCH   1  13
TORSDOF 6
