REMARK  3 active torsions:
REMARK  status: ('A' for Active; 'I' for Inactive)
REMARK    1  A    between atoms: C_2  and  O_4 
REMARK    2  A    between atoms: C_2  and  C_5 
REMARK    3  A    between atoms: C_5  and  N_6 
ROOT
HETATM    1  N   UNL     1       4.555  -0.688   1.313  1.00  0.00    -0.271 N 
HETATM    2  N   UNL     1       5.307   0.364   1.688  1.00  0.00    -0.019 NA
HETATM    3  N   UNL     1       6.579  -0.004   1.616  1.00  0.00    -0.282 N 
ATOM      4  HN  UNL     1       7.385   0.586   1.823  1.00  0.00     0.184 HD
HETATM    5  C   UNL     1       6.622  -1.310   1.217  1.00  0.00     0.075 A 
HETATM    6  C   UNL     1       7.715  -2.154   0.980  1.00  0.00     0.058 A 
HETATM    7  C   UNL     1       7.466  -3.469   0.562  1.00  0.00     0.058 A 
HETATM    8 CL   UNL     1       8.841  -4.474   0.261  1.00  0.00    -0.082 Cl
HETATM    9  C   UNL     1       6.152  -3.934   0.396  1.00  0.00     0.058 A 
HETATM   10 CL   UNL     1       5.808  -5.548  -0.126  1.00  0.00    -0.082 Cl
HETATM   11  C   UNL     1       5.051  -3.098   0.637  1.00  0.00     0.058 A 
HETATM   12  C   UNL     1       5.329  -1.786   1.036  1.00  0.00     0.078 A 
ENDROOT
BRANCH   1  13
HETATM   13  C   UNL     1       3.120  -0.556   1.239  1.00  0.00     0.183 C 
BRANCH  13  14
HETATM   14  C   UNL     1       2.576  -0.054  -0.116  1.00  0.00     0.068 C 
HETATM   15  C   UNL     1       2.922  -0.996  -1.273  1.00  0.00     0.047 C 
HETATM   16  C   UNL     1       3.031   1.372  -0.435  1.00  0.00     0.047 C 
BRANCH  14  17
HETATM   17  O   UNL     1       1.142  -0.039  -0.004  1.00  0.00    -0.389 OA
HETATM   18  H   UNL     1       0.776   0.343  -0.822  1.00  0.00     0.210 HD
ENDBRANCH  14  17
ENDBRANCH  13  14
ENDBRANCH   1  13
TORSDOF 3
