REMARK  6 active torsions:
REMARK  status: ('A' for Active; 'I' for Inactive)
REMARK    1  A    between atoms: C_2  and  C_4 
REMARK    2  A    between atoms: C_4  and  N_5 
REMARK    3  A    between atoms: C_7  and  C_11 
REMARK       I    between atoms: C_11  and  N_13 
REMARK    4  A    between atoms: N_13  and  C_14 
REMARK    5  A    between atoms: C_14  and  C_15 
REMARK    6  A    between atoms: C_15  and  C_16 
ROOT
HETATM    1  C   UNL     1       7.077  -1.273  -3.579  1.00  0.00     0.223 C 
HETATM    2  O   UNL     1       6.368  -2.024  -4.247  1.00  0.00    -0.273 OA
HETATM    3  N   UNL     1       8.295  -0.819  -4.044  1.00  0.00    -0.360 N 
HETATM    4  H   UNL     1       8.882  -0.227  -3.470  1.00  0.00     0.162 HD
ENDROOT
BRANCH   1   5
HETATM    5  C   UNL     1       6.701  -0.832  -2.174  1.00  0.00     0.104 A 
HETATM    6  C   UNL     1       5.314  -1.345  -1.793  1.00  0.00     0.140 A 
HETATM    7  N   UNL     1       4.574  -0.197  -1.331  1.00  0.00    -0.351 N 
HETATM    8  C   UNL     1       5.281   0.982  -1.453  1.00  0.00     0.220 A 
HETATM    9  C   UNL     1       6.639   0.687  -2.026  1.00  0.00     0.118 A 
HETATM   10  O   UNL     1       4.880   2.103  -1.178  1.00  0.00    -0.273 OA
BRANCH   7  11
HETATM   11  C   UNL     1       3.122  -0.222  -1.201  1.00  0.00     0.129 C 
BRANCH  11  12
HETATM   12  C   UNL     1       2.587  -1.301  -0.250  1.00  0.00    -0.005 C 
HETATM   13  C   UNL     1       3.071  -1.063   1.180  1.00  0.00     0.011 C 
HETATM   14  C   UNL     1       1.056  -1.315  -0.291  1.00  0.00     0.011 C 
ENDBRANCH  11  12
ENDBRANCH   7  11
ENDBRANCH   1   5
BRANCH   3  15
HETATM   15  C   UNL     1       8.744  -1.237  -5.364  1.00  0.00     0.128 C 
BRANCH  15  16
HETATM   16  C   UNL     1      10.125  -0.720  -5.749  1.00  0.00     0.076 C 
BRANCH  16  17
HETATM   17  C   UNL     1      10.489  -1.198  -7.133  1.00  0.00     0.010 A 
HETATM   18  C   UNL     1      10.157  -0.444  -8.256  1.00  0.00     0.025 A 
HETATM   19  C   UNL     1      10.457  -0.952  -9.519  1.00  0.00     0.003 A 
HETATM   20  C   UNL     1      11.068  -2.196  -9.629  1.00  0.00     0.017 A 
HETATM   21  C   UNL     1      11.364  -2.879  -8.462  1.00  0.00     0.088 A 
HETATM   22  N   UNL     1      11.088  -2.410  -7.224  1.00  0.00    -0.369 N 
ATOM     23  HN  UNL     1      11.322  -2.948  -6.390  1.00  0.00     0.165 HD
ENDBRANCH  16  17
ENDBRANCH  15  16
ENDBRANCH   3  15
TORSDOF 6
