REMARK  4 active torsions:
REMARK  status: ('A' for Active; 'I' for Inactive)
REMARK    1  A    between atoms: S_2  and  C_4 
REMARK    2  A    between atoms: N_10  and  C_11 
REMARK    3  A    between atoms: C_11  and  C_12 
REMARK       I    between atoms: C_12  and  N_14 
REMARK    4  A    between atoms: N_14  and  C_15 
ROOT
HETATM    1  C   UNL     1       7.561   0.689   0.463  1.00  0.00     0.236 C 
HETATM    2  O   UNL     1       8.023   0.785   1.597  1.00  0.00    -0.272 OA
HETATM    3  N   UNL     1       8.185   1.241  -0.645  1.00  0.00    -0.355 N 
HETATM    4  H   UNL     1       7.886   0.976  -1.575  1.00  0.00     0.162 HD
ENDROOT
BRANCH   1   5
HETATM    5  C   UNL     1       6.243  -0.010   0.179  1.00  0.00     0.234 C 
BRANCH   5   6
HETATM    6  N   UNL     1       5.204   0.467   1.064  1.00  0.00    -0.311 N 
HETATM    7  C   UNL     1       4.963   0.137   2.373  1.00  0.00     0.192 A 
HETATM    8  N   UNL     1       4.046   0.955   2.852  1.00  0.00    -0.277 N 
HETATM    9  N   UNL     1       3.632   1.780   1.834  1.00  0.00    -0.294 N 
ATOM     10  HN  UNL     1       3.703   0.972   3.813  1.00  0.00     0.189 HD
HETATM   11  C   UNL     1       4.342   1.485   0.773  1.00  0.00     0.202 A 
ATOM     12  HN  UNL     1       2.904   2.492   1.893  1.00  0.00     0.187 HD
BRANCH   7  13
HETATM   13  S   UNL     1       5.718  -1.105   3.315  1.00  0.00     0.081 S 
HETATM   14  C   UNL     1       4.318  -1.582   4.339  1.00  0.00     0.136 C 
HETATM   15  O   UNL     1       6.112  -2.206   2.376  1.00  0.00    -0.250 OA
ENDBRANCH   7  13
ENDBRANCH   5   6
ENDBRANCH   1   5
BRANCH   3  16
HETATM   16  C   UNL     1       9.477   1.924  -0.514  1.00  0.00     0.084 C 
HETATM   17  C   UNL     1       9.556   3.084  -1.515  1.00  0.00     0.025 C 
HETATM   18  C   UNL     1      10.710   4.078  -1.336  1.00  0.00     0.002 C 
HETATM   19  C   UNL     1      11.032   4.463   0.110  1.00  0.00     0.000 C 
HETATM   20  C   UNL     1      12.240   3.743   0.718  1.00  0.00     0.000 C 
HETATM   21  C   UNL     1      12.130   2.233   0.952  1.00  0.00     0.000 C 
HETATM   22  C   UNL     1      12.025   1.389  -0.319  1.00  0.00     0.002 C 
HETATM   23  C   UNL     1      10.613   0.903  -0.654  1.00  0.00     0.025 C 
ENDBRANCH   3  16
TORSDOF 4
