REMARK  4 active torsions:
REMARK  status: ('A' for Active; 'I' for Inactive)
REMARK    1  A    between atoms: C_6  and  N_7 
REMARK       I    between atoms: N_7  and  C_8 
REMARK       I    between atoms: C_8  and  N_10 
REMARK    2  A    between atoms: N_10  and  C_11 
REMARK    3  A    between atoms: C_13  and  C_14 
REMARK    4  A    between atoms: C_14  and  O_15 
ROOT
HETATM    1  N   UNL     1       3.823  -7.914  -3.494  1.00  0.00    -0.295 N 
HETATM    2  C   UNL     1       4.511  -7.771  -2.322  1.00  0.00     0.322 C 
HETATM    3  O   UNL     1       5.125  -8.724  -1.848  1.00  0.00    -0.247 OA
HETATM    4  N   UNL     1       4.428  -6.561  -1.723  1.00  0.00    -0.335 N 
HETATM    5  H   UNL     1       3.873  -8.850  -3.868  1.00  0.00     0.172 HD
HETATM    6  H   UNL     1       3.937  -5.850  -2.260  1.00  0.00     0.164 HD
ENDROOT
BRANCH   1   7
HETATM    7  C   UNL     1       2.962  -6.996  -4.112  1.00  0.00     0.109 A 
HETATM    8  C   UNL     1       2.145  -7.460  -5.134  1.00  0.00     0.049 A 
HETATM    9  C   UNL     1       1.218  -6.589  -5.698  1.00  0.00     0.006 A 
HETATM   10  C   UNL     1       1.155  -5.272  -5.254  1.00  0.00     0.025 A 
HETATM   11  C   UNL     1       2.024  -4.868  -4.250  1.00  0.00     0.007 A 
HETATM   12  C   UNL     1       2.051  -3.443  -3.784  1.00  0.00     0.068 C 
HETATM   13  N   UNL     1       2.915  -5.714  -3.679  1.00  0.00    -0.346 N 
ATOM     14  HN  UNL     1       3.538  -5.392  -2.938  1.00  0.00     0.167 HD
ENDBRANCH   1   7
BRANCH   4  15
HETATM   15  C   UNL     1       4.871  -6.264  -0.394  1.00  0.00     0.109 C 
HETATM   16  C   UNL     1       6.395  -6.178  -0.261  1.00  0.00     0.040 C 
HETATM   17  C   UNL     1       6.716  -4.796   0.337  1.00  0.00     0.034 C 
HETATM   18  C   UNL     1       5.412  -4.058   0.235  1.00  0.00    -0.022 C 
HETATM   19  C   UNL     1       4.409  -4.873  -0.100  1.00  0.00    -0.005 C 
BRANCH  17  20
HETATM   20  C   UNL     1       7.896  -4.136  -0.378  1.00  0.00     0.172 C 
BRANCH  20  21
HETATM   21  O   UNL     1       8.188  -2.861   0.183  1.00  0.00    -0.400 OA
HETATM   22  H   UNL     1       7.463  -2.265  -0.071  1.00  0.00     0.209 HD
ENDBRANCH  20  21
ENDBRANCH  17  20
ENDBRANCH   4  15
TORSDOF 4
