REMARK  4 active torsions:
REMARK  status: ('A' for Active; 'I' for Inactive)
REMARK    1  A    between atoms: C_4  and  C_5 
REMARK    2  A    between atoms: C_5  and  C_6 
REMARK    3  A    between atoms: C_6  and  N_7 
REMARK       I    between atoms: N_7  and  C_8 
REMARK    4  A    between atoms: C_8  and  C_10 
ROOT
HETATM    1  C   UNL     1       5.418   2.895  -0.050  1.00  0.00     0.127 C 
ENDROOT
BRANCH   1   2
HETATM    2  C   UNL     1       5.746   1.401  -0.071  1.00  0.00     0.061 C 
BRANCH   2   3
HETATM    3  C   UNL     1       4.519   0.563   0.023  1.00  0.00    -0.023 A 
HETATM    4  C   UNL     1       3.875   0.112   1.157  1.00  0.00     0.118 A 
HETATM    5  N   UNL     1       2.785  -0.589   0.728  1.00  0.00    -0.308 N 
HETATM    6  C   UNL     1       1.783  -1.229   1.544  1.00  0.00     0.177 C 
HETATM    7  N   UNL     1       2.681  -0.642  -0.611  1.00  0.00    -0.310 N 
HETATM    8  C   UNL     1       3.731   0.061  -1.039  1.00  0.00     0.115 A 
ATOM      9  HN  UNL     1       1.967  -1.110  -1.169  1.00  0.00     0.186 HD
ENDBRANCH   2   3
ENDBRANCH   1   2
BRANCH   1  10
HETATM   10  N   UNL     1       6.595   3.732  -0.191  1.00  0.00    -0.359 N 
HETATM   11  C   UNL     1       6.467   5.108  -0.247  1.00  0.00     0.241 C 
HETATM   12  O   UNL     1       5.364   5.657  -0.259  1.00  0.00    -0.271 OA
HETATM   13  H   UNL     1       7.508   3.375   0.076  1.00  0.00     0.162 HD
BRANCH  11  14
HETATM   14  C   UNL     1       7.767   5.918  -0.357  1.00  0.00     0.200 C 
HETATM   15  S   UNL     1       8.123   6.298  -2.108  1.00  0.00    -0.143 SA
HETATM   16  C   UNL     1       9.898   5.913  -2.088  1.00  0.00     0.086 C 
HETATM   17  C   UNL     1      10.416   5.955  -0.663  1.00  0.00     0.086 C 
HETATM   18  S   UNL     1       9.213   5.077   0.363  1.00  0.00    -0.143 SA
ENDBRANCH  11  14
ENDBRANCH   1  10
TORSDOF 4
