REMARK  5 active torsions:
REMARK  status: ('A' for Active; 'I' for Inactive)
REMARK       I    between atoms: N_5  and  C_8 
REMARK    1  A    between atoms: C_8  and  C_10 
REMARK    2  A    between atoms: C_10  and  N_11 
REMARK    3  A    between atoms: N_11  and  C_12 
REMARK    4  A    between atoms: C_12  and  C_13 
REMARK    5  A    between atoms: C_13  and  N_14 
ROOT
HETATM    1  C   UNL     1       4.384  -0.069  -4.673  1.00  0.00     0.372 C 
ENDROOT
BRANCH   1   2
HETATM    2  C   UNL     1       3.794  -1.182  -3.797  1.00  0.00     0.247 C 
HETATM    3  N   UNL     1       3.150  -0.765  -2.631  1.00  0.00    -0.351 N 
HETATM    4  C   UNL     1       2.848   0.628  -2.291  1.00  0.00     0.126 C 
HETATM    5  C   UNL     1       2.505  -1.771  -1.793  1.00  0.00     0.126 C 
HETATM    6  C   UNL     1       3.138   0.915  -0.819  1.00  0.00     0.024 C 
HETATM    7  C   UNL     1       2.464  -0.093   0.123  1.00  0.00    -0.015 C 
HETATM    8  C   UNL     1       0.952   0.131   0.206  1.00  0.00     0.010 C 
HETATM    9  C   UNL     1       2.805  -1.525  -0.316  1.00  0.00     0.024 C 
HETATM   10  O   UNL     1       3.877  -2.369  -4.117  1.00  0.00    -0.271 OA
ENDBRANCH   1   2
BRANCH   1  11
HETATM   11  N   UNL     1       5.200  -0.613  -5.773  1.00  0.00     0.093 N 
HETATM   12  H   UNL     1       4.642  -1.321  -6.259  1.00  0.00     0.316 HD
BRANCH  11  13
HETATM   13  C   UNL     1       5.627   0.441  -6.703  1.00  0.00     0.291 C 
BRANCH  13  14
HETATM   14  C   UNL     1       6.613   1.423  -6.065  1.00  0.00     0.178 C 
BRANCH  14  15
HETATM   15  N   UNL     1       7.032   2.454  -6.990  1.00  0.00    -0.302 N 
HETATM   16  C   UNL     1       8.159   2.450  -7.763  1.00  0.00     0.111 A 
HETATM   17  C   UNL     1       8.176   3.667  -8.405  1.00  0.00     0.037 A 
HETATM   18  C   UNL     1       7.019   4.328  -7.955  1.00  0.00     0.108 A 
HETATM   19  N   UNL     1       6.312   3.587  -7.096  1.00  0.00    -0.310 N 
ATOM     20  HN  UNL     1       5.435   3.824  -6.631  1.00  0.00     0.186 HD
ENDBRANCH  14  15
ENDBRANCH  13  14
ENDBRANCH  11  13
ENDBRANCH   1  11
TORSDOF 5
