REMARK  5 active torsions:
REMARK  status: ('A' for Active; 'I' for Inactive)
REMARK    1  A    between atoms: C_2  and  O_3 
REMARK    2  A    between atoms: C_2  and  C_4 
REMARK    3  A    between atoms: C_4  and  N_5 
REMARK       I    between atoms: N_5  and  C_6 
REMARK       I    between atoms: C_6  and  N_8 
REMARK    4  A    between atoms: N_8  and  C_9 
REMARK    5  A    between atoms: C_12  and  N_16 
ROOT
HETATM    1  C   UNL     1       7.204   2.607   3.149  1.00  0.00     0.051 A 
HETATM    2  C   UNL     1       6.955   3.965   3.246  1.00  0.00     0.035 A 
HETATM    3  C   UNL     1       7.722   4.765   4.096  1.00  0.00     0.051 A 
HETATM    4  C   UNL     1       8.762   4.225   4.845  1.00  0.00     0.103 A 
HETATM    5  N   UNL     1       9.060   2.912   4.695  1.00  0.00    -0.350 N 
ATOM      6  HN  UNL     1       9.850   2.503   5.193  1.00  0.00     0.166 HD
HETATM    7  C   UNL     1       8.292   2.143   3.871  1.00  0.00     0.119 A 
ENDROOT
BRANCH   1   8
HETATM    8  N   UNL     1       6.406   1.728   2.377  1.00  0.00    -0.308 N 
HETATM    9  C   UNL     1       5.115   2.012   1.987  1.00  0.00     0.320 C 
HETATM   10  N   UNL     1       4.560   1.019   1.208  1.00  0.00    -0.340 N 
HETATM   11  O   UNL     1       4.470   3.006   2.299  1.00  0.00    -0.247 OA
HETATM   12  H   UNL     1       5.185   0.570   0.550  1.00  0.00     0.164 HD
HETATM   13  H   UNL     1       6.665   0.752   2.353  1.00  0.00     0.170 HD
BRANCH  10  14
HETATM   14  C   UNL     1       3.205   1.257   0.732  1.00  0.00     0.155 C 
BRANCH  14  15
HETATM   15  C   UNL     1       2.638   0.101  -0.091  1.00  0.00     0.132 C 
HETATM   16  C   UNL     1       1.198   0.394  -0.500  1.00  0.00     0.041 C 
BRANCH  15  17
HETATM   17  O   UNL     1       3.436  -0.087  -1.264  1.00  0.00    -0.394 OA
HETATM   18  H   UNL     1       3.316   0.695  -1.832  1.00  0.00     0.210 HD
ENDBRANCH  15  17
ENDBRANCH  14  15
ENDBRANCH  10  14
ENDBRANCH   1   8
BRANCH   4  19
HETATM   19  N   UNL     1       9.478   4.972   5.750  1.00  0.00    -0.363 N 
HETATM   20  C   UNL     1       9.272   6.396   6.038  1.00  0.00     0.150 C 
HETATM   21  C   UNL     1      10.525   7.183   5.626  1.00  0.00     0.187 C 
HETATM   22  O   UNL     1      11.694   6.684   6.298  1.00  0.00    -0.388 OA
HETATM   23  C   UNL     1      11.899   5.292   5.984  1.00  0.00     0.187 C 
HETATM   24  C   UNL     1      10.689   4.425   6.377  1.00  0.00     0.150 C 
ENDBRANCH   4  19
TORSDOF 5
