REMARK  5 active torsions:
REMARK  status: ('A' for Active; 'I' for Inactive)
REMARK       I    between atoms: N_2  and  C_4 
REMARK    1  A    between atoms: C_4  and  C_6 
REMARK    2  A    between atoms: C_6  and  C_7 
REMARK       I    between atoms: N_10  and  C_13 
REMARK       I    between atoms: C_13  and  N_15 
REMARK    3  A    between atoms: N_15  and  C_16 
REMARK    4  A    between atoms: C_16  and  C_17 
REMARK    5  A    between atoms: C_17  and  C_18 
ROOT
HETATM    1  C   UNL     1       5.200  -2.396  -1.221  1.00  0.00    -0.003 C 
HETATM    2  C   UNL     1       4.376  -3.694  -1.308  1.00  0.00     0.025 C 
HETATM    3  C   UNL     1       4.070  -4.315   0.057  1.00  0.00     0.128 C 
HETATM    4  N   UNL     1       5.283  -4.460   0.867  1.00  0.00    -0.334 N 
HETATM    5  C   UNL     1       6.092  -3.252   1.002  1.00  0.00     0.128 C 
HETATM    6  C   UNL     1       6.453  -2.677  -0.368  1.00  0.00     0.025 C 
HETATM    7  C   UNL     1       5.726  -5.604   1.506  1.00  0.00     0.318 C 
HETATM    8  O   UNL     1       6.785  -5.650   2.128  1.00  0.00    -0.247 OA
HETATM    9  N   UNL     1       4.925  -6.708   1.397  1.00  0.00    -0.343 N 
HETATM   10  H   UNL     1       3.936  -6.537   1.323  1.00  0.00     0.164 HD
ENDROOT
BRANCH   9  11
HETATM   11  C   UNL     1       5.326  -7.936   2.063  1.00  0.00     0.129 C 
BRANCH  11  12
HETATM   12  C   UNL     1       4.376  -9.108   1.799  1.00  0.00     0.059 C 
BRANCH  12  13
HETATM   13  C   UNL     1       4.166  -9.521   0.355  1.00  0.00    -0.048 A 
HETATM   14  C   UNL     1       5.186  -9.381  -0.594  1.00  0.00     0.024 A 
HETATM   15  C   UNL     1       4.971  -9.804  -1.896  1.00  0.00     0.088 A 
HETATM   16  N   UNL     1       3.824 -10.362  -2.322  1.00  0.00    -0.375 N 
HETATM   17  C   UNL     1       2.851 -10.514  -1.393  1.00  0.00     0.094 A 
ATOM     18  HN  UNL     1       3.694 -10.654  -3.291  1.00  0.00     0.164 HD
HETATM   19  C   UNL     1       2.964 -10.124  -0.061  1.00  0.00    -0.040 A 
HETATM   20  C   UNL     1       1.807 -10.351   0.872  1.00  0.00     0.050 C 
ENDBRANCH  12  13
ENDBRANCH  11  12
ENDBRANCH   9  11
BRANCH   1  21
HETATM   21  C   UNL     1       4.452  -1.179  -0.640  1.00  0.00     0.107 C 
BRANCH  21  22
HETATM   22  C   UNL     1       3.286  -0.637  -1.458  1.00  0.00     0.219 C 
HETATM   23  N   UNL     1       2.681   0.517  -0.950  1.00  0.00    -0.361 N 
HETATM   24  C   UNL     1       1.478   0.991  -1.610  1.00  0.00     0.152 C 
HETATM   25  C   UNL     1       3.052   1.129   0.318  1.00  0.00     0.152 C 
HETATM   26  O   UNL     1       2.891  -1.188  -2.483  1.00  0.00    -0.273 OA
ENDBRANCH  21  22
ENDBRANCH   1  21
TORSDOF 5
