REMARK  5 active torsions:
REMARK  status: ('A' for Active; 'I' for Inactive)
REMARK       I    between atoms: N_1  and  C_2 
REMARK    1  A    between atoms: C_2  and  C_4 
REMARK    2  A    between atoms: C_4  and  N_5 
REMARK    3  A    between atoms: C_7  and  N_8 
REMARK       I    between atoms: N_8  and  C_9 
REMARK       I    between atoms: C_9  and  N_11 
REMARK    4  A    between atoms: N_11  and  C_12 
REMARK    5  A    between atoms: C_12  and  C_13 
ROOT
HETATM    1  N   UNL     1       4.782   0.982   0.026  1.00  0.00    -0.293 N 
HETATM    2  C   UNL     1       5.670   2.017   0.003  1.00  0.00     0.141 A 
HETATM    3  C   UNL     1       6.926   1.464  -0.054  1.00  0.00     0.070 A 
HETATM    4  C   UNL     1       6.688   0.072  -0.054  1.00  0.00     0.138 A 
HETATM    5  N   UNL     1       5.385  -0.232  -0.004  1.00  0.00    -0.307 N 
ATOM      6  HN  UNL     1       4.951  -1.155   0.009  1.00  0.00     0.186 HD
ENDROOT
BRANCH   3   7
HETATM    7  N   UNL     1       8.148   2.116  -0.105  1.00  0.00    -0.306 N 
HETATM    8  C   UNL     1       8.299   3.485  -0.124  1.00  0.00     0.320 C 
HETATM    9  O   UNL     1       7.398   4.313  -0.078  1.00  0.00    -0.247 OA
HETATM   10  N   UNL     1       9.621   3.857  -0.257  1.00  0.00    -0.340 N 
HETATM   11  H   UNL     1      10.329   3.233   0.105  1.00  0.00     0.164 HD
HETATM   12  H   UNL     1       8.974   1.546  -0.192  1.00  0.00     0.171 HD
BRANCH  10  13
HETATM   13  C   UNL     1       9.974   5.267  -0.253  1.00  0.00     0.156 C 
BRANCH  13  14
HETATM   14  C   UNL     1      11.258   5.560  -1.024  1.00  0.00     0.139 C 
HETATM   15  C   UNL     1      11.216   5.193  -2.501  1.00  0.00     0.035 C 
HETATM   16  C   UNL     1      12.625   4.732  -2.815  1.00  0.00     0.029 C 
HETATM   17  C   UNL     1      13.371   4.836  -1.501  1.00  0.00     0.168 C 
HETATM   18  O   UNL     1      12.368   4.824  -0.480  1.00  0.00    -0.384 OA
ENDBRANCH  13  14
ENDBRANCH  10  13
ENDBRANCH   3   7
BRANCH   1  19
HETATM   19  C   UNL     1       3.338   1.094   0.153  1.00  0.00     0.250 C 
BRANCH  19  20
HETATM   20  C   UNL     1       2.569   0.536  -1.024  1.00  0.00     0.235 C 
HETATM   21  N   UNL     1       3.020  -0.622  -1.583  1.00  0.00    -0.369 N 
HETATM   22  H   UNL     1       2.534  -1.003  -2.382  1.00  0.00     0.159 HD
HETATM   23  H   UNL     1       3.929  -1.001  -1.320  1.00  0.00     0.159 HD
HETATM   24  O   UNL     1       1.518   1.041  -1.418  1.00  0.00    -0.272 OA
ENDBRANCH  19  20
ENDBRANCH   1  19
TORSDOF 5
