REMARK  5 active torsions:
REMARK  status: ('A' for Active; 'I' for Inactive)
REMARK       I    between atoms: N_2  and  C_4 
REMARK       I    between atoms: C_4  and  N_14 
REMARK    1  A    between atoms: N_5  and  C_6 
REMARK    2  A    between atoms: C_6  and  C_7 
REMARK    3  A    between atoms: C_7  and  N_8 
REMARK    4  A    between atoms: N_14  and  C_15 
REMARK    5  A    between atoms: C_15  and  C_16 
ROOT
HETATM    1  C   UNL     1       1.211  -0.180   0.071  1.00  0.00     0.165 C 
HETATM    2  N   UNL     1       2.641   0.063   0.095  1.00  0.00    -0.231 N 
ATOM      3  HN  UNL     1       3.264  -0.584   0.578  1.00  0.00     0.177 HD
HETATM    4  C   UNL     1       3.119   1.102  -0.498  1.00  0.00     0.669 C 
HETATM    5  N   UNL     1       2.367   2.092  -1.063  1.00  0.00    -0.225 N 
HETATM    6  N   UNL     1       4.457   1.326  -0.520  1.00  0.00    -0.223 N 
HETATM    7  H   UNL     1       1.560   2.323  -0.495  1.00  0.00     0.177 HD
HETATM    8  H   UNL     1       4.862   1.948  -1.201  1.00  0.00     0.178 HD
ENDROOT
BRANCH   5   9
HETATM    9  C   UNL     1       2.833   3.189  -1.896  1.00  0.00     0.159 C 
BRANCH   9  10
HETATM   10  C   UNL     1       3.128   2.690  -3.309  1.00  0.00     0.168 C 
BRANCH  10  11
HETATM   11  N   UNL     1       3.626   3.749  -4.164  1.00  0.00    -0.302 N 
HETATM   12  C   UNL     1       3.057   4.213  -5.315  1.00  0.00     0.111 A 
HETATM   13  C   UNL     1       3.886   5.210  -5.772  1.00  0.00     0.037 A 
HETATM   14  C   UNL     1       4.932   5.262  -4.833  1.00  0.00     0.108 A 
HETATM   15  N   UNL     1       4.780   4.369  -3.853  1.00  0.00    -0.310 N 
ATOM     16  HN  UNL     1       5.393   4.197  -3.056  1.00  0.00     0.186 HD
ENDBRANCH  10  11
ENDBRANCH   9  10
ENDBRANCH   5   9
BRANCH   6  17
HETATM   17  C   UNL     1       5.414   0.544   0.219  1.00  0.00     0.164 C 
BRANCH  17  18
HETATM   18  C   UNL     1       6.307   1.527   0.901  1.00  0.00    -0.017 C 
HETATM   19  C   UNL     1       7.628   1.646   0.698  1.00  0.00     0.008 C 
ENDBRANCH  17  18
ENDBRANCH   6  17
TORSDOF 5
