REMARK  8 active torsions:
REMARK  status: ('A' for Active; 'I' for Inactive)
REMARK    1  A    between atoms: C_2  and  N_3 
REMARK    2  A    between atoms: C_2  and  C_11 
REMARK    3  A    between atoms: N_3  and  C_4 
REMARK    4  A    between atoms: C_4  and  C_5 
REMARK    5  A    between atoms: C_5  and  C_6 
REMARK    6  A    between atoms: C_6  and  S_7 
REMARK    7  A    between atoms: S_7  and  N_10 
REMARK    8  A    between atoms: C_11  and  N_13 
ROOT
HETATM    1  N   UNL     1       2.759   0.984   1.080  1.00  0.00     0.089 N 
HETATM    2  H   UNL     1       2.367   1.899   0.854  1.00  0.00     0.316 HD
ENDROOT
BRANCH   1   3
HETATM    3  C   UNL     1       2.472   0.028  -0.016  1.00  0.00     0.240 C 
HETATM    4  C   UNL     1       0.954  -0.071  -0.238  1.00  0.00     0.045 C 
BRANCH   3   5
HETATM    5  C   UNL     1       3.149  -1.375   0.142  1.00  0.00     0.136 C 
HETATM    6  C   UNL     1       2.890  -2.297  -1.055  1.00  0.00     0.036 C 
BRANCH   5   7
HETATM    7  N   UNL     1       4.592  -1.316   0.397  1.00  0.00    -0.297 N 
HETATM    8  C   UNL     1       5.512  -0.433  -0.102  1.00  0.00     0.112 A 
HETATM    9  C   UNL     1       6.731  -0.817   0.403  1.00  0.00     0.037 A 
HETATM   10  C   UNL     1       6.455  -1.964   1.165  1.00  0.00     0.108 A 
HETATM   11  N   UNL     1       5.159  -2.283   1.156  1.00  0.00    -0.310 N 
ATOM     12  HN  UNL     1       4.702  -3.072   1.614  1.00  0.00     0.186 HD
ENDBRANCH   5   7
ENDBRANCH   3   5
ENDBRANCH   1   3
BRANCH   1  13
HETATM   13  C   UNL     1       2.282   0.551   2.388  1.00  0.00     0.271 C 
BRANCH  13  14
HETATM   14  C   UNL     1       2.640   1.570   3.468  1.00  0.00     0.046 C 
BRANCH  14  15
HETATM   15  C   UNL     1       2.110   1.054   4.794  1.00  0.00     0.164 C 
BRANCH  15  16
HETATM   16  S   UNL     1       2.431   2.132   6.152  1.00  0.00     0.224 S 
HETATM   17  O   UNL     1       3.850   2.247   6.388  1.00  0.00    -0.206 OA
HETATM   18  O   UNL     1       1.552   3.272   6.095  1.00  0.00    -0.206 OA
BRANCH  16  19
HETATM   19  N   UNL     1       1.852   1.144   7.376  1.00  0.00    -0.328 N 
HETATM   20  H   UNL     1       2.582   0.752   7.969  1.00  0.00     0.168 HD
HETATM   21  H   UNL     1       0.992   1.472   7.809  1.00  0.00     0.168 HD
ENDBRANCH  16  19
ENDBRANCH  15  16
ENDBRANCH  14  15
ENDBRANCH  13  14
ENDBRANCH   1  13
TORSDOF 8
