REMARK  4 active torsions:
REMARK  status: ('A' for Active; 'I' for Inactive)
REMARK    1  A    between atoms: O_2  and  C_3 
REMARK    2  A    between atoms: C_3  and  C_4 
REMARK    3  A    between atoms: C_4  and  N_5 
REMARK    4  A    between atoms: C_6  and  N_7 
ROOT
HETATM    1  N   UNL     1       4.748  -2.554  -0.910  1.00  0.00    -0.288 N 
HETATM    2  C   UNL     1       4.218  -3.740  -0.408  1.00  0.00     0.089 A 
HETATM    3  C   UNL     1       4.613  -4.908  -0.941  1.00  0.00     0.116 A 
HETATM    4  C   UNL     1       5.603  -4.950  -2.019  1.00  0.00     0.252 A 
HETATM    5  O   UNL     1       5.955  -6.013  -2.519  1.00  0.00    -0.268 OA
HETATM    6  N   UNL     1       6.111  -3.750  -2.396  1.00  0.00    -0.275 N 
HETATM    7  C   UNL     1       5.742  -2.540  -1.886  1.00  0.00     0.330 A 
HETATM    8  O   UNL     1       6.295  -1.519  -2.298  1.00  0.00    -0.246 OA
HETATM    9  H   UNL     1       6.808  -3.745  -3.123  1.00  0.00     0.173 HD
ENDROOT
BRANCH   1  10
HETATM   10  C   UNL     1       4.266  -1.241  -0.450  1.00  0.00     0.161 C 
BRANCH  10  11
HETATM   11  C   UNL     1       3.615  -0.380  -1.547  1.00  0.00     0.187 C 
BRANCH  11  12
HETATM   12  O   UNL     1       2.455  -1.029  -2.074  1.00  0.00    -0.394 OA
HETATM   13  C   UNL     1       1.886  -0.283  -3.142  1.00  0.00     0.201 C 
ENDBRANCH  11  12
ENDBRANCH  10  11
ENDBRANCH   1  10
BRANCH   2  14
HETATM   14  N   UNL     1       3.313  -3.762   0.639  1.00  0.00    -0.288 NA
HETATM   15  H   UNL     1       3.533  -3.081   1.359  1.00  0.00     0.125 HD
HETATM   16  H   UNL     1       3.173  -4.683   1.047  1.00  0.00     0.125 HD
ENDBRANCH   2  14
TORSDOF 4
