REMARK  5 active torsions:
REMARK  status: ('A' for Active; 'I' for Inactive)
REMARK    1  A    between atoms: C_2  and  C_3 
REMARK    2  A    between atoms: C_2  and  N_15 
REMARK       I    between atoms: C_3  and  N_5 
REMARK    3  A    between atoms: N_5  and  C_6 
REMARK    4  A    between atoms: C_6  and  C_12 
REMARK    5  A    between atoms: C_12  and  O_14 
ROOT
HETATM    1  C   UNL     1       3.486   0.399  -1.292  1.00  0.00     0.243 C 
HETATM    2  O   UNL     1       4.665   0.724  -1.155  1.00  0.00    -0.271 OA
HETATM    3  N   UNL     1       2.765   0.818  -2.391  1.00  0.00    -0.340 N 
HETATM    4  H   UNL     1       1.879   0.346  -2.567  1.00  0.00     0.163 HD
ENDROOT
BRANCH   3   5
HETATM    5  C   UNL     1       3.278   1.693  -3.477  1.00  0.00     0.118 C 
HETATM    6  C   UNL     1       3.860   3.028  -2.951  1.00  0.00     0.042 C 
HETATM    7  C   UNL     1       2.806   3.894  -2.261  1.00  0.00     0.003 C 
HETATM    8  C   UNL     1       1.639   4.199  -3.192  1.00  0.00     0.000 C 
HETATM    9  C   UNL     1       1.039   2.929  -3.786  1.00  0.00     0.003 C 
HETATM   10  C   UNL     1       2.101   2.036  -4.430  1.00  0.00     0.042 C 
BRANCH   5  11
HETATM   11  C   UNL     1       4.364   0.938  -4.298  1.00  0.00     0.169 C 
HETATM   12  O   UNL     1       4.289   0.710  -5.499  1.00  0.00    -0.648 OA
BRANCH  11  13
HETATM   13  O   UNL     1       5.452   0.558  -3.586  1.00  0.00    -0.775 OA
HETATM   14  H   UNL     1       5.385   0.768  -2.622  1.00  0.00     0.167 HD
ENDBRANCH  11  13
ENDBRANCH   5  11
ENDBRANCH   3   5
BRANCH   1  15
HETATM   15  C   UNL     1       2.728  -0.448  -0.276  1.00  0.00     0.195 C 
HETATM   16  C   UNL     1       3.612  -0.870   0.896  1.00  0.00     0.044 C 
BRANCH  15  17
HETATM   17  N   UNL     1       2.115  -1.602  -0.919  1.00  0.00    -0.290 N 
HETATM   18  C   UNL     1       2.741  -2.646  -1.540  1.00  0.00     0.112 A 
HETATM   19  C   UNL     1       1.742  -3.480  -1.984  1.00  0.00     0.037 A 
HETATM   20  C   UNL     1       0.548  -2.841  -1.607  1.00  0.00     0.108 A 
HETATM   21  N   UNL     1       0.770  -1.675  -0.993  1.00  0.00    -0.309 N 
ATOM     22  HN  UNL     1       0.083  -0.999  -0.659  1.00  0.00     0.186 HD
ENDBRANCH  15  17
ENDBRANCH   1  15
TORSDOF 5
