REMARK  4 active torsions:
REMARK  status: ('A' for Active; 'I' for Inactive)
REMARK    1  A    between atoms: N_2  and  C_4 
REMARK    2  A    between atoms: C_4  and  C_5 
REMARK    3  A    between atoms: C_5  and  N_6 
REMARK       I    between atoms: N_6  and  C_7 
REMARK       I    between atoms: C_7  and  N_9 
REMARK    4  A    between atoms: N_9  and  C_10 
ROOT
HETATM    1  N   UNL     1       4.461   1.231   2.014  1.00  0.00    -0.340 N 
HETATM    2  C   UNL     1       4.482   1.687   3.317  1.00  0.00     0.322 C 
HETATM    3  O   UNL     1       4.486   0.909   4.268  1.00  0.00    -0.247 OA
HETATM    4  N   UNL     1       4.503   3.054   3.382  1.00  0.00    -0.289 N 
HETATM    5  H   UNL     1       4.147   1.848   1.281  1.00  0.00     0.164 HD
HETATM    6  H   UNL     1       4.501   3.604   2.543  1.00  0.00     0.172 HD
ENDROOT
BRANCH   1   7
HETATM    7  C   UNL     1       4.319  -0.192   1.730  1.00  0.00     0.166 C 
BRANCH   7   8
HETATM    8  C   UNL     1       2.865  -0.604   1.272  1.00  0.00     0.174 C 
HETATM    9  C   UNL     1       2.866  -2.141   1.043  1.00  0.00     0.043 C 
HETATM   10  C   UNL     1       2.436  -2.796   2.360  1.00  0.00     0.003 C 
HETATM   11  C   UNL     1       2.152  -1.672   3.346  1.00  0.00     0.003 C 
HETATM   12  C   UNL     1       1.885  -0.459   2.468  1.00  0.00     0.043 C 
BRANCH   8  13
HETATM   13  N   UNL     1       2.462   0.208   0.074  1.00  0.00     0.091 N 
HETATM   14  C   UNL     1       3.273  -0.071  -1.119  1.00  0.00     0.310 C 
HETATM   15  C   UNL     1       1.044   0.070  -0.294  1.00  0.00     0.310 C 
ENDBRANCH   8  13
ENDBRANCH   7   8
ENDBRANCH   1   7
BRANCH   4  16
HETATM   16  C   UNL     1       4.452   3.719   4.577  1.00  0.00     0.152 A 
HETATM   17  N   UNL     1       4.468   3.244   5.795  1.00  0.00    -0.346 N 
HETATM   18  C   UNL     1       4.324   4.277   6.698  1.00  0.00     0.097 A 
ATOM     19  HN  UNL     1       4.571   2.259   6.040  1.00  0.00     0.167 HD
HETATM   20  C   UNL     1       4.200   5.532   6.144  1.00  0.00     0.070 A 
HETATM   21  S   UNL     1       4.314   5.418   4.434  1.00  0.00    -0.064 SA
ENDBRANCH   4  16
TORSDOF 4
