REMARK  4 active torsions:
REMARK  status: ('A' for Active; 'I' for Inactive)
REMARK    1  A    between atoms: C_4  and  C_8 
REMARK    2  A    between atoms: C_8  and  O_9 
REMARK    3  A    between atoms: C_8  and  C_10 
REMARK    4  A    between atoms: C_10  and  N_11 
ROOT
HETATM    1  C   UNL     1       1.080  -0.118   0.051  1.00  0.00     0.177 C 
HETATM    2  N   UNL     1       2.521  -0.063   0.072  1.00  0.00    -0.307 N 
HETATM    3  C   UNL     1       3.299   1.056   0.050  1.00  0.00     0.120 A 
HETATM    4  C   UNL     1       4.612   0.619   0.052  1.00  0.00     0.006 A 
HETATM    5  C   UNL     1       4.496  -0.790   0.083  1.00  0.00     0.118 A 
HETATM    6  N   UNL     1       3.229  -1.205   0.116  1.00  0.00    -0.310 N 
ATOM      7  HN  UNL     1       2.880  -2.162   0.163  1.00  0.00     0.186 HD
ENDROOT
BRANCH   4   8
HETATM    8  C   UNL     1       5.869   1.423   0.027  1.00  0.00     0.181 C 
BRANCH   8   9
HETATM    9  O   UNL     1       5.665   2.654  -0.676  1.00  0.00    -0.389 OA
HETATM   10  H   UNL     1       5.400   3.310  -0.010  1.00  0.00     0.210 HD
ENDBRANCH   8   9
BRANCH   8  11
HETATM   11  C   UNL     1       6.397   1.685   1.465  1.00  0.00     0.303 C 
BRANCH  11  12
HETATM   12  N   UNL     1       7.620   2.499   1.502  1.00  0.00     0.081 N 
HETATM   13  H   UNL     1       8.336   2.071   0.916  1.00  0.00     0.312 HD
HETATM   14  H   UNL     1       7.992   2.509   2.452  1.00  0.00     0.312 HD
ENDBRANCH  11  12
ENDBRANCH   8  11
ENDBRANCH   4   8
TORSDOF 4
