REMARK  3 active torsions:
REMARK  status: ('A' for Active; 'I' for Inactive)
REMARK    1  A    between atoms: C_4  and  N_5 
REMARK       I    between atoms: N_5  and  C_6 
REMARK       I    between atoms: C_6  and  N_8 
REMARK    2  A    between atoms: N_8  and  C_9 
REMARK    3  A    between atoms: C_9  and  C_10 
ROOT
HETATM    1  N   UNL     1       5.644   1.529  -0.005  1.00  0.00    -0.293 N 
HETATM    2  C   UNL     1       5.645   2.949   0.006  1.00  0.00     0.321 C 
HETATM    3  O   UNL     1       4.625   3.619  -0.006  1.00  0.00    -0.247 OA
HETATM    4  N   UNL     1       6.899   3.471   0.029  1.00  0.00    -0.342 N 
HETATM    5  H   UNL     1       6.524   1.049   0.008  1.00  0.00     0.172 HD
HETATM    6  H   UNL     1       6.921   4.484   0.001  1.00  0.00     0.164 HD
ENDROOT
BRANCH   1   7
HETATM    7  C   UNL     1       4.507   0.736  -0.021  1.00  0.00     0.127 A 
HETATM    8  C   UNL     1       3.191   1.130  -0.036  1.00  0.00     0.076 A 
HETATM    9  C   UNL     1       2.439  -0.066  -0.038  1.00  0.00     0.025 A 
HETATM   10  C   UNL     1       0.964  -0.206  -0.043  1.00  0.00     0.070 C 
HETATM   11  N   UNL     1       3.227  -1.146  -0.032  1.00  0.00    -0.302 N 
HETATM   12  N   UNL     1       4.474  -0.640  -0.023  1.00  0.00    -0.281 N 
ATOM     13  HN  UNL     1       2.948  -2.127  -0.034  1.00  0.00     0.186 HD
HETATM   14  C   UNL     1       5.582  -1.565  -0.012  1.00  0.00     0.179 C 
ENDBRANCH   1   7
BRANCH   4  15
HETATM   15  C   UNL     1       8.138   2.741  -0.025  1.00  0.00     0.129 C 
BRANCH  15  16
HETATM   16  C   UNL     1       9.313   3.650  -0.041  1.00  0.00     0.003 A 
HETATM   17  C   UNL     1       9.588   4.589  -1.187  1.00  0.00     0.007 A 
HETATM   18  C   UNL     1      10.428   3.355  -1.012  1.00  0.00     0.007 A 
ENDBRANCH  15  16
ENDBRANCH   4  15
TORSDOF 3
