REMARK  5 active torsions:
REMARK  status: ('A' for Active; 'I' for Inactive)
REMARK    1  A    between atoms: C_5  and  S_6 
REMARK    2  A    between atoms: S_6  and  C_7 
REMARK    3  A    between atoms: C_7  and  C_8 
REMARK       I    between atoms: C_8  and  N_10 
REMARK    4  A    between atoms: C_15  and  C_16 
REMARK    5  A    between atoms: C_16  and  C_17 
REMARK       I    between atoms: C_17  and  N_19 
ROOT
HETATM    1  C   UNL     1       1.319  -0.180  -0.021  1.00  0.00     0.069 C 
HETATM    2  C   UNL     1       2.805  -0.083  -0.014  1.00  0.00     0.020 A 
HETATM    3  N   UNL     1       3.540  -1.266  -0.039  1.00  0.00    -0.348 N 
ATOM      4  HN  UNL     1       3.139  -2.204  -0.041  1.00  0.00     0.167 HD
HETATM    5  C   UNL     1       4.825  -0.997  -0.059  1.00  0.00     0.113 A 
HETATM    6  S   UNL     1       5.235   0.662   0.008  1.00  0.00    -0.067 SA
HETATM    7  C   UNL     1       3.567   1.078  -0.009  1.00  0.00     0.016 A 
ENDROOT
BRANCH   5   8
HETATM    8  S   UNL     1       6.055  -2.243  -0.101  1.00  0.00    -0.096 SA
BRANCH   8   9
HETATM    9  C   UNL     1       5.204  -3.558  -1.014  1.00  0.00     0.184 C 
BRANCH   9  10
HETATM   10  C   UNL     1       4.781  -3.105  -2.403  1.00  0.00     0.229 C 
HETATM   11  O   UNL     1       5.503  -2.432  -3.138  1.00  0.00    -0.273 OA
HETATM   12  N   UNL     1       3.539  -3.522  -2.797  1.00  0.00    -0.351 N 
HETATM   13  C   UNL     1       2.858  -3.317  -4.059  1.00  0.00     0.127 C 
HETATM   14  C   UNL     1       2.713  -4.638  -2.381  1.00  0.00     0.127 C 
HETATM   15  C   UNL     1       2.190  -4.675  -3.822  1.00  0.00     0.040 C 
ENDBRANCH   9  10
ENDBRANCH   8   9
ENDBRANCH   5   8
BRANCH   7  16
HETATM   16  C   UNL     1       3.162   2.519  -0.082  1.00  0.00     0.150 C 
BRANCH  16  17
HETATM   17  C   UNL     1       2.379   2.970   1.134  1.00  0.00     0.220 C 
HETATM   18  O   UNL     1       1.249   3.449   1.052  1.00  0.00    -0.273 OA
HETATM   19  N   UNL     1       3.016   2.904   2.334  1.00  0.00    -0.370 N 
HETATM   20  H   UNL     1       3.894   2.421   2.463  1.00  0.00     0.159 HD
HETATM   21  H   UNL     1       2.510   3.213   3.151  1.00  0.00     0.159 HD
ENDBRANCH  16  17
ENDBRANCH   7  16
TORSDOF 5
