REMARK  3 active torsions:
REMARK  status: ('A' for Active; 'I' for Inactive)
REMARK       I    between atoms: N_5  and  C_8 
REMARK       I    between atoms: C_8  and  N_10 
REMARK    1  A    between atoms: N_10  and  C_11 
REMARK    2  A    between atoms: N_15  and  C_16 
REMARK    3  A    between atoms: C_16  and  C_17 
REMARK       I    between atoms: C_17  and  N_19 
ROOT
HETATM    1  C   UNL     1       5.153  -0.350  -5.697  1.00  0.00     0.070 A 
HETATM    2  C   UNL     1       5.764  -1.549  -6.119  1.00  0.00     0.138 A 
HETATM    3  N   UNL     1       6.490  -1.391  -7.230  1.00  0.00    -0.307 N 
ATOM      4  HN  UNL     1       7.028  -2.094  -7.736  1.00  0.00     0.186 HD
HETATM    5  N   UNL     1       6.344  -0.082  -7.525  1.00  0.00    -0.293 N 
HETATM    6  C   UNL     1       5.578   0.588  -6.610  1.00  0.00     0.141 A 
ENDROOT
BRANCH   1   7
HETATM    7  N   UNL     1       4.310  -0.075  -4.632  1.00  0.00    -0.306 N 
HETATM    8  C   UNL     1       3.898  -1.025  -3.731  1.00  0.00     0.323 C 
HETATM    9  N   UNL     1       3.028  -0.599  -2.738  1.00  0.00    -0.331 N 
HETATM   10  O   UNL     1       4.268  -2.196  -3.781  1.00  0.00    -0.247 OA
HETATM   11  C   UNL     1       2.446   0.733  -2.534  1.00  0.00     0.157 C 
HETATM   12  C   UNL     1       2.651  -1.565  -1.701  1.00  0.00     0.157 C 
HETATM   13  C   UNL     1       2.739   1.253  -1.108  1.00  0.00     0.291 C 
HETATM   14  N   UNL     1       2.402   0.315  -0.015  1.00  0.00     0.087 N 
HETATM   15  C   UNL     1       0.959   0.227   0.203  1.00  0.00     0.310 C 
HETATM   16  C   UNL     1       2.985  -1.015  -0.302  1.00  0.00     0.291 C 
HETATM   17  H   UNL     1       4.026   0.883  -4.538  1.00  0.00     0.171 HD
ENDBRANCH   1   7
BRANCH   5  18
HETATM   18  C   UNL     1       7.041   0.433  -8.691  1.00  0.00     0.250 C 
BRANCH  18  19
HETATM   19  C   UNL     1       6.316   1.556  -9.394  1.00  0.00     0.235 C 
HETATM   20  O   UNL     1       6.112   2.659  -8.894  1.00  0.00    -0.272 OA
HETATM   21  N   UNL     1       5.904   1.305 -10.673  1.00  0.00    -0.369 N 
HETATM   22  H   UNL     1       5.895   0.380 -11.082  1.00  0.00     0.159 HD
HETATM   23  H   UNL     1       5.384   2.037 -11.143  1.00  0.00     0.159 HD
ENDBRANCH  18  19
ENDBRANCH   5  18
TORSDOF 3
