REMARK  8 active torsions:
REMARK  status: ('A' for Active; 'I' for Inactive)
REMARK    1  A    between atoms: N_2  and  C_11 
REMARK    2  A    between atoms: C_6  and  N_10 
REMARK    3  A    between atoms: C_7  and  N_10 
REMARK    4  A    between atoms: C_13  and  O_24 
REMARK    5  A    between atoms: C_18  and  C_26 
REMARK    6  A    between atoms: C_18  and  C_27 
REMARK    7  A    between atoms: C_26  and  O_28 
REMARK    8  A    between atoms: C_27  and  O_29 
ROOT
HETATM    1  C   UNL     1       0.307  -0.543   0.349  1.00  0.00     0.122 A 
HETATM    2  N   UNL     1       1.489   1.282   0.407  1.00  0.00    -0.322 N 
HETATM    3  C   UNL     1       0.197   0.842   0.232  1.00  0.00     0.140 A 
HETATM    4  N   UNL     1       1.591  -0.912   0.713  1.00  0.00    -0.346 N 
ATOM      5  HN  UNL     1       1.933  -1.852   0.914  1.00  0.00     0.167 HD
HETATM    6  C   UNL     1      -0.825  -1.337   0.030  1.00  0.00     0.135 C 
HETATM    7  C   UNL     1       2.269   0.202   0.744  1.00  0.00     0.185 A 
HETATM    8  N   UNL     1      -0.926   1.537  -0.035  1.00  0.00    -0.336 N 
ATOM      9  HN  UNL     1      -0.979   2.554  -0.100  1.00  0.00     0.168 HD
HETATM   10  N   UNL     1      -1.985  -0.656  -0.207  1.00  0.00    -0.337 N 
ATOM     11  HN  UNL     1      -2.852  -1.163  -0.385  1.00  0.00     0.168 HD
HETATM   12  C   UNL     1      -1.973   0.698  -0.204  1.00  0.00     0.183 C 
ENDROOT
BRANCH   6  13
HETATM   13  N   UNL     1      -0.778  -2.764  -0.098  1.00  0.00    -0.364 N 
HETATM   14  C   UNL     1       0.547  -3.206  -0.534  1.00  0.00     0.152 C 
BRANCH  13  15
HETATM   15  C   UNL     1      -1.939  -3.561  -0.476  1.00  0.00     0.099 C 
HETATM   16  C   UNL     1      -1.962  -5.054  -0.101  1.00  0.00     0.007 C 
HETATM   17  C   UNL     1      -2.413  -4.690   1.298  1.00  0.00     0.133 C 
HETATM   18  C   UNL     1      -2.898  -5.919  -0.954  1.00  0.00     0.014 C 
HETATM   19  C   UNL     1      -0.871  -6.088  -0.268  1.00  0.00     0.014 C 
HETATM   20  C   UNL     1      -3.050  -3.439   0.631  1.00  0.00     0.059 C 
HETATM   21  C   UNL     1      -1.627  -6.589  -1.521  1.00  0.00     0.002 C 
BRANCH  17  22
HETATM   22  O   UNL     1      -3.313  -5.569   2.000  1.00  0.00    -0.390 OA
HETATM   23  C   UNL     1      -3.639  -5.133   3.313  1.00  0.00     0.202 C 
ENDBRANCH  17  22
ENDBRANCH  13  15
ENDBRANCH   6  13
BRANCH   2  24
HETATM   24  C   UNL     1       2.089   2.573   0.267  1.00  0.00     0.094 C 
HETATM   25  C   UNL     1       1.448   3.678   1.138  1.00  0.00     0.039 C 
HETATM   26  C   UNL     1       1.842   4.686   0.005  1.00  0.00     0.006 C 
HETATM   27  C   UNL     1       1.671   3.446  -0.949  1.00  0.00     0.039 C 
BRANCH  26  28
HETATM   28  C   UNL     1       0.834   5.807  -0.222  1.00  0.00     0.175 C 
BRANCH  28  29
HETATM   29  O   UNL     1       0.778   6.631   0.942  1.00  0.00    -0.400 OA
HETATM   30  H   UNL     1       0.254   6.149   1.609  1.00  0.00     0.209 HD
ENDBRANCH  28  29
ENDBRANCH  26  28
BRANCH  26  31
HETATM   31  C   UNL     1       3.280   5.234   0.073  1.00  0.00     0.175 C 
BRANCH  31  32
HETATM   32  O   UNL     1       3.483   5.916   1.305  1.00  0.00    -0.400 OA
HETATM   33  H   UNL     1       2.789   6.605   1.359  1.00  0.00     0.209 HD
ENDBRANCH  31  32
ENDBRANCH  26  31
ENDBRANCH   2  24
TORSDOF 8
