REMARK  5 active torsions:
REMARK  status: ('A' for Active; 'I' for Inactive)
REMARK    1  A    between atoms: C_2  and  C_3 
REMARK    2  A    between atoms: C_3  and  C_4 
REMARK    3  A    between atoms: C_3  and  N_15 
REMARK    4  A    between atoms: C_4  and  N_5 
REMARK       I    between atoms: N_5  and  C_6 
REMARK       I    between atoms: C_6  and  N_8 
REMARK    5  A    between atoms: N_8  and  C_9 
ROOT
HETATM    1  N   UNL     1       2.679   3.052   2.398  1.00  0.00    -0.341 N 
HETATM    2  C   UNL     1       2.120   3.440   3.602  1.00  0.00     0.320 C 
HETATM    3  O   UNL     1       1.330   2.727   4.211  1.00  0.00    -0.247 OA
HETATM    4  N   UNL     1       2.514   4.700   3.991  1.00  0.00    -0.306 N 
HETATM    5  H   UNL     1       3.656   3.286   2.268  1.00  0.00     0.164 HD
HETATM    6  H   UNL     1       2.921   5.304   3.293  1.00  0.00     0.171 HD
ENDROOT
BRANCH   1   7
HETATM    7  C   UNL     1       2.291   1.744   1.889  1.00  0.00     0.160 C 
BRANCH   7   8
HETATM    8  C   UNL     1       2.956   1.350   0.545  1.00  0.00     0.240 C 
BRANCH   8   9
HETATM    9  C   UNL     1       2.400  -0.017   0.056  1.00  0.00     0.033 C 
HETATM   10  C   UNL     1       0.902  -0.021  -0.225  1.00  0.00     0.007 C 
ENDBRANCH   8   9
BRANCH   8  11
HETATM   11  N   UNL     1       4.437   1.400   0.645  1.00  0.00     0.094 N 
HETATM   12  C   UNL     1       5.135   1.263  -0.640  1.00  0.00     0.273 C 
HETATM   13  C   UNL     1       6.433   0.519  -0.346  1.00  0.00     0.032 C 
HETATM   14  C   UNL     1       6.498   0.425   1.165  1.00  0.00     0.032 C 
HETATM   15  C   UNL     1       5.041   0.449   1.583  1.00  0.00     0.273 C 
ENDBRANCH   8  11
ENDBRANCH   7   8
ENDBRANCH   1   7
BRANCH   4  16
HETATM   16  C   UNL     1       2.115   5.267   5.191  1.00  0.00     0.070 A 
HETATM   17  C   UNL     1       1.497   4.688   6.325  1.00  0.00     0.138 A 
HETATM   18  N   UNL     1       1.263   5.578   7.295  1.00  0.00    -0.310 N 
HETATM   19  N   UNL     1       1.716   6.729   6.777  1.00  0.00    -0.310 N 
ATOM     20  HN  UNL     1       0.841   5.419   8.210  1.00  0.00     0.186 HD
HETATM   21  C   UNL     1       2.257   6.593   5.528  1.00  0.00     0.138 A 
HETATM   22  H   UNL     1       1.622   7.571   7.336  1.00  0.00     0.186 HD
ENDBRANCH   4  16
TORSDOF 5
