REMARK  7 active torsions:
REMARK  status: ('A' for Active; 'I' for Inactive)
REMARK    1  A    between atoms: C_2  and  N_3 
REMARK       I    between atoms: N_3  and  C_4 
REMARK    2  A    between atoms: C_4  and  C_6 
REMARK    3  A    between atoms: C_6  and  N_7 
REMARK    4  A    between atoms: C_10  and  N_11 
REMARK       I    between atoms: N_11  and  C_12 
REMARK    5  A    between atoms: C_12  and  C_14 
REMARK    6  A    between atoms: C_14  and  O_15 
REMARK    7  A    between atoms: O_15  and  C_16 
ROOT
HETATM    1  N   UNL     1       6.478   0.654   2.882  1.00  0.00    -0.293 N 
HETATM    2  C   UNL     1       7.319   1.707   2.677  1.00  0.00     0.114 A 
HETATM    3  C   UNL     1       8.593   1.199   2.825  1.00  0.00     0.068 A 
HETATM    4  C   UNL     1       8.418  -0.176   3.109  1.00  0.00     0.123 A 
HETATM    5  N   UNL     1       7.128  -0.499   3.099  1.00  0.00    -0.283 N 
ATOM      6  HN  UNL     1       6.720  -1.425   3.229  1.00  0.00     0.189 HD
ENDROOT
BRANCH   4   7
HETATM    7  N   UNL     1       9.431  -1.068   3.374  1.00  0.00    -0.310 N 
HETATM    8  C   UNL     1       9.225  -2.390   3.733  1.00  0.00     0.246 C 
HETATM    9  O   UNL     1       8.156  -2.982   3.854  1.00  0.00    -0.271 OA
HETATM   10  H   UNL     1      10.376  -0.707   3.403  1.00  0.00     0.170 HD
BRANCH   8  11
HETATM   11  C   UNL     1      10.545  -3.103   4.027  1.00  0.00     0.270 C 
BRANCH  11  12
HETATM   12  O   UNL     1      11.341  -2.424   4.993  1.00  0.00    -0.382 OA
BRANCH  12  13
HETATM   13  C   UNL     1      10.741  -2.461   6.292  1.00  0.00     0.163 C 
HETATM   14  C   UNL     1      11.682  -1.796   7.274  1.00  0.00     0.033 C 
ENDBRANCH  12  13
ENDBRANCH  11  12
ENDBRANCH   8  11
ENDBRANCH   4   7
BRANCH   1  15
HETATM   15  C   UNL     1       5.026   0.647   2.871  1.00  0.00     0.250 C 
BRANCH  15  16
HETATM   16  C   UNL     1       4.411   0.320   4.221  1.00  0.00     0.237 C 
HETATM   17  N   UNL     1       5.088  -0.586   5.006  1.00  0.00    -0.360 N 
HETATM   18  H   UNL     1       5.924  -1.028   4.610  1.00  0.00     0.162 HD
HETATM   19  O   UNL     1       3.330   0.807   4.555  1.00  0.00    -0.272 OA
BRANCH  17  20
HETATM   20  C   UNL     1       4.634  -1.007   6.312  1.00  0.00     0.118 C 
HETATM   21  C   UNL     1       3.803  -2.273   6.241  1.00  0.00     0.026 C 
ENDBRANCH  17  20
ENDBRANCH  15  16
ENDBRANCH   1  15
TORSDOF 7
