REMARK  6 active torsions:
REMARK  status: ('A' for Active; 'I' for Inactive)
REMARK    1  A    between atoms: N_11  and  C_12 
REMARK    2  A    between atoms: C_12  and  C_13 
REMARK    3  A    between atoms: C_13  and  O_14 
REMARK    4  A    between atoms: C_13  and  C_15 
REMARK    5  A    between atoms: C_15  and  O_16 
REMARK    6  A    between atoms: O_16  and  C_17 
ROOT
HETATM    1  C   UNL     1       5.844   0.295  -4.565  1.00  0.00     0.164 C 
HETATM    2  N   UNL     1       5.839   0.128  -3.124  1.00  0.00    -0.269 N 
HETATM    3  C   UNL     1       6.015  -1.167  -2.599  1.00  0.00     0.332 A 
HETATM    4  O   UNL     1       6.164  -2.145  -3.336  1.00  0.00    -0.246 OA
HETATM    5  N   UNL     1       6.019  -1.292  -1.208  1.00  0.00    -0.287 N 
HETATM    6  C   UNL     1       6.196  -2.592  -0.585  1.00  0.00     0.163 C 
HETATM    7  C   UNL     1       5.868  -0.171  -0.428  1.00  0.00     0.145 A 
HETATM    8  N   UNL     1       5.876  -0.136   0.932  1.00  0.00    -0.336 N 
ATOM      9  HN  UNL     1       5.980  -0.920   1.576  1.00  0.00     0.168 HD
HETATM   10  C   UNL     1       5.719   1.137   1.231  1.00  0.00     0.185 A 
HETATM   11  N   UNL     1       5.631   1.917   0.103  1.00  0.00    -0.333 N 
HETATM   12  C   UNL     1       5.706   1.070  -0.969  1.00  0.00     0.149 A 
HETATM   13  C   UNL     1       5.676   1.295  -2.372  1.00  0.00     0.282 A 
HETATM   14  O   UNL     1       5.550   2.412  -2.867  1.00  0.00    -0.265 OA
ENDROOT
BRANCH  11  15
HETATM   15  C   UNL     1       5.502   3.364   0.103  1.00  0.00     0.164 C 
BRANCH  15  16
HETATM   16  C   UNL     1       6.846   4.109   0.139  1.00  0.00     0.160 C 
BRANCH  16  17
HETATM   17  O   UNL     1       7.551   3.765   1.339  1.00  0.00    -0.392 OA
HETATM   18  H   UNL     1       8.115   2.992   1.158  1.00  0.00     0.210 HD
ENDBRANCH  16  17
BRANCH  16  19
HETATM   19  C   UNL     1       7.685   3.870  -1.128  1.00  0.00     0.209 C 
BRANCH  19  20
HETATM   20  O   UNL     1       8.891   4.640  -1.082  1.00  0.00    -0.349 OA
BRANCH  20  21
HETATM   21  C   UNL     1       9.715   4.483  -2.169  1.00  0.00     0.069 A 
HETATM   22  C   UNL     1       9.294   4.138  -3.458  1.00  0.00     0.040 A 
HETATM   23  C   UNL     1      10.223   4.026  -4.496  1.00  0.00     0.045 A 
HETATM   24  C   UNL     1      11.569   4.262  -4.242  1.00  0.00     0.116 A 
HETATM   25  F   UNL     1      12.458   4.156  -5.237  1.00  0.00    -0.206 F 
HETATM   26  C   UNL     1      12.001   4.616  -2.968  1.00  0.00     0.045 A 
HETATM   27  C   UNL     1      11.071   4.734  -1.934  1.00  0.00     0.040 A 
ENDBRANCH  20  21
ENDBRANCH  19  20
ENDBRANCH  16  19
ENDBRANCH  15  16
ENDBRANCH  11  15
TORSDOF 6
