REMARK  3 active torsions:
REMARK  status: ('A' for Active; 'I' for Inactive)
REMARK       I    between atoms: N_1  and  C_2 
REMARK    1  A    between atoms: C_2  and  C_4 
REMARK    2  A    between atoms: N_9  and  C_10 
REMARK    3  A    between atoms: C_14  and  C_18 
ROOT
HETATM    1  C   UNL     1       2.839   1.328  -3.312  1.00  0.00     0.126 A 
HETATM    2  N   UNL     1       3.000   2.492  -3.990  1.00  0.00    -0.350 N 
ATOM      3  HN  UNL     1       2.666   3.372  -3.597  1.00  0.00     0.166 HD
HETATM    4  C   UNL     1       3.615   2.465  -5.203  1.00  0.00     0.106 A 
HETATM    5  C   UNL     1       4.107   1.318  -5.806  1.00  0.00     0.065 A 
HETATM    6  C   UNL     1       3.923   0.117  -5.125  1.00  0.00     0.045 A 
HETATM    7  C   UNL     1       3.280   0.115  -3.888  1.00  0.00     0.078 A 
HETATM    8 CL   UNL     1       2.993  -1.435  -3.165  1.00  0.00    -0.080 Cl
ENDROOT
BRANCH   1   9
HETATM    9  N   UNL     1       2.202   1.358  -2.065  1.00  0.00    -0.348 N 
HETATM   10  C   UNL     1       3.094   0.979  -0.914  1.00  0.00     0.201 C 
HETATM   11  C   UNL     1       3.579   2.195  -0.106  1.00  0.00     0.202 C 
HETATM   12  O   UNL     1       2.516   3.097   0.227  1.00  0.00    -0.387 OA
HETATM   13  C   UNL     1       1.920   3.612  -0.967  1.00  0.00     0.187 C 
HETATM   14  C   UNL     1       1.294   2.497  -1.808  1.00  0.00     0.151 C 
BRANCH  10  15
HETATM   15  C   UNL     1       2.407  -0.025   0.032  1.00  0.00     0.240 C 
HETATM   16  N   UNL     1       1.163  -0.450  -0.342  1.00  0.00    -0.368 N 
HETATM   17  H   UNL     1       0.726  -1.188   0.189  1.00  0.00     0.159 HD
HETATM   18  H   UNL     1       0.849  -0.243  -1.283  1.00  0.00     0.159 HD
HETATM   19  O   UNL     1       2.939  -0.475   1.044  1.00  0.00    -0.271 OA
ENDBRANCH  10  15
ENDBRANCH   1   9
BRANCH   5  20
HETATM   20  C   UNL     1       4.802   1.360  -7.132  1.00  0.00     0.418 C 
HETATM   21  F   UNL     1       4.858   2.603  -7.681  1.00  0.00    -0.166 F 
HETATM   22  F   UNL     1       6.090   0.927  -7.050  1.00  0.00    -0.166 F 
HETATM   23  F   UNL     1       4.201   0.566  -8.060  1.00  0.00    -0.166 F 
ENDBRANCH   5  20
TORSDOF 3
