REMARK  7 active torsions:
REMARK  status: ('A' for Active; 'I' for Inactive)
REMARK    1  A    between atoms: N_1  and  C_8 
REMARK    2  A    between atoms: C_6  and  N_9 
REMARK    3  A    between atoms: C_14  and  C_25 
REMARK    4  A    between atoms: C_14  and  C_26 
REMARK    5  A    between atoms: C_21  and  C_22 
REMARK    6  A    between atoms: C_25  and  O_27 
REMARK    7  A    between atoms: C_26  and  O_28 
ROOT
HETATM    1  N   UNL     1       1.637   1.140  -0.038  1.00  0.00    -0.322 N 
HETATM    2  C   UNL     1       0.422  -0.664  -0.041  1.00  0.00     0.117 A 
HETATM    3  C   UNL     1       0.328   0.727  -0.016  1.00  0.00     0.140 A 
HETATM    4  N   UNL     1       1.734  -1.081  -0.122  1.00  0.00    -0.346 N 
ATOM      5  HN  UNL     1       2.081  -2.038  -0.184  1.00  0.00     0.167 HD
HETATM    6  C   UNL     1      -0.777  -1.413   0.039  1.00  0.00     0.114 A 
HETATM    7  C   UNL     1       2.434   0.022  -0.101  1.00  0.00     0.185 A 
HETATM    8  N   UNL     1      -0.799   1.455   0.049  1.00  0.00    -0.336 N 
ATOM      9  HN  UNL     1      -0.833   2.474   0.053  1.00  0.00     0.168 HD
HETATM   10  N   UNL     1      -1.937  -0.704   0.125  1.00  0.00    -0.341 N 
ATOM     11  HN  UNL     1      -2.833  -1.185   0.201  1.00  0.00     0.167 HD
HETATM   12  C   UNL     1      -1.883   0.648   0.108  1.00  0.00     0.183 A 
ENDROOT
BRANCH   6  13
HETATM   13  N   UNL     1      -0.765  -2.820   0.077  1.00  0.00    -0.267 NA
HETATM   14  C   UNL     1      -1.924  -3.420   0.736  1.00  0.00     0.097 C 
HETATM   15  C   UNL     1      -1.667  -4.919   0.918  1.00  0.00     0.022 C 
HETATM   16  C   UNL     1      -1.416  -5.621  -0.433  1.00  0.00     0.017 C 
HETATM   17  C   UNL     1      -0.224  -4.923  -1.113  1.00  0.00     0.022 C 
HETATM   18  C   UNL     1      -0.377  -3.400  -1.214  1.00  0.00     0.097 C 
BRANCH  16  19
HETATM   19  C   UNL     1      -2.698  -5.666  -1.295  1.00  0.00     0.125 C 
HETATM   20  O   UNL     1      -3.755  -6.270  -0.516  1.00  0.00    -0.385 OA
HETATM   21  C   UNL     1      -4.401  -7.266  -1.312  1.00  0.00     0.168 C 
HETATM   22  C   UNL     1      -3.348  -7.752  -2.275  1.00  0.00     0.029 C 
HETATM   23  C   UNL     1      -2.600  -6.478  -2.586  1.00  0.00     0.034 C 
ENDBRANCH  16  19
ENDBRANCH   6  13
BRANCH   1  24
HETATM   24  C   UNL     1       2.243   2.440   0.033  1.00  0.00     0.094 C 
HETATM   25  C   UNL     1       1.800   3.338   1.222  1.00  0.00     0.039 C 
HETATM   26  C   UNL     1       2.109   4.565   0.283  1.00  0.00     0.006 C 
HETATM   27  C   UNL     1       1.670   3.575  -0.864  1.00  0.00     0.039 C 
BRANCH  26  28
HETATM   28  C   UNL     1       1.202   5.781   0.458  1.00  0.00     0.175 C 
BRANCH  28  29
HETATM   29  O   UNL     1       1.430   6.360   1.741  1.00  0.00    -0.400 OA
HETATM   30  H   UNL     1       0.961   5.805   2.391  1.00  0.00     0.209 HD
ENDBRANCH  28  29
ENDBRANCH  26  28
BRANCH  26  31
HETATM   31  C   UNL     1       3.586   5.005   0.201  1.00  0.00     0.175 C 
BRANCH  31  32
HETATM   32  O   UNL     1       4.059   5.377   1.490  1.00  0.00    -0.400 OA
HETATM   33  H   UNL     1       3.484   6.107   1.797  1.00  0.00     0.209 HD
ENDBRANCH  31  32
ENDBRANCH  26  31
ENDBRANCH   1  24
TORSDOF 7
