REMARK  7 active torsions:
REMARK  status: ('A' for Active; 'I' for Inactive)
REMARK    1  A    between atoms: C_2  and  N_4 
REMARK    2  A    between atoms: N_3  and  C_15 
REMARK    3  A    between atoms: C_8  and  C_10 
REMARK    4  A    between atoms: C_15  and  C_16 
REMARK    5  A    between atoms: C_16  and  C_26 
REMARK    6  A    between atoms: C_18  and  O_25 
REMARK    7  A    between atoms: C_26  and  O_27 
ROOT
HETATM    1  C   UNL     1       0.431  -0.780   0.158  1.00  0.00     0.117 A 
HETATM    2  C   UNL     1      -0.717  -1.614   0.066  1.00  0.00     0.115 A 
HETATM    3  N   UNL     1       1.494   1.150   0.130  1.00  0.00    -0.326 N 
HETATM    4  C   UNL     1       0.234   0.595   0.108  1.00  0.00     0.140 A 
HETATM    5  N   UNL     1       1.780  -1.058   0.271  1.00  0.00    -0.346 N 
ATOM      6  HN  UNL     1       2.217  -1.976   0.355  1.00  0.00     0.167 HD
HETATM    7  C   UNL     1       2.382   0.111   0.248  1.00  0.00     0.185 A 
HETATM    8  N   UNL     1      -1.920  -0.996  -0.077  1.00  0.00    -0.341 N 
ATOM      9  HN  UNL     1      -2.775  -1.543  -0.177  1.00  0.00     0.167 HD
HETATM   10  N   UNL     1      -0.943   1.237  -0.001  1.00  0.00    -0.336 N 
ATOM     11  HN  UNL     1      -1.051   2.251  -0.018  1.00  0.00     0.168 HD
HETATM   12  C   UNL     1      -1.965   0.354  -0.085  1.00  0.00     0.183 A 
ENDROOT
BRANCH   2  13
HETATM   13  N   UNL     1      -0.628  -3.007   0.102  1.00  0.00    -0.262 NA
HETATM   14  C   UNL     1      -1.694  -3.844  -0.492  1.00  0.00     0.073 C 
HETATM   15  C   UNL     1      -1.531  -5.199   0.242  1.00  0.00     0.022 C 
HETATM   16  C   UNL     1      -0.439  -4.993   1.284  1.00  0.00     0.017 C 
HETATM   17  C   UNL     1      -0.390  -3.490   1.464  1.00  0.00     0.097 C 
BRANCH  14  18
HETATM   18  C   UNL     1      -1.625  -3.858  -2.042  1.00  0.00     0.056 C 
HETATM   19  C   UNL     1      -2.801  -4.617  -2.687  1.00  0.00     0.128 C 
HETATM   20  C   UNL     1      -2.619  -6.133  -2.716  1.00  0.00     0.058 C 
HETATM   21  C   UNL     1      -1.215  -6.528  -3.162  1.00  0.00     0.170 C 
HETATM   22  O   UNL     1      -0.201  -5.811  -2.466  1.00  0.00    -0.391 OA
HETATM   23  C   UNL     1      -0.307  -4.395  -2.601  1.00  0.00     0.176 C 
BRANCH  19  24
HETATM   24  O   UNL     1      -2.992  -4.163  -4.039  1.00  0.00    -0.395 OA
HETATM   25  H   UNL     1      -2.208  -4.397  -4.566  1.00  0.00     0.210 HD
ENDBRANCH  19  24
ENDBRANCH  14  18
ENDBRANCH   2  13
BRANCH   3  26
HETATM   26  C   UNL     1       1.838   2.572   0.050  1.00  0.00     0.143 C 
BRANCH  26  27
HETATM   27  C   UNL     1       2.039   3.144  -1.396  1.00  0.00     0.001 C 
HETATM   28  C   UNL     1       3.305   2.524  -2.050  1.00  0.00     0.039 C 
HETATM   29  C   UNL     1       4.587   3.139  -1.480  1.00  0.00     0.168 C 
HETATM   30  O   UNL     1       4.612   4.530  -1.773  1.00  0.00    -0.391 OA
HETATM   31  C   UNL     1       3.584   5.238  -1.086  1.00  0.00     0.168 C 
HETATM   32  C   UNL     1       2.195   4.694  -1.413  1.00  0.00     0.039 C 
BRANCH  27  33
HETATM   33  C   UNL     1       0.780   2.835  -2.246  1.00  0.00     0.175 C 
BRANCH  33  34
HETATM   34  O   UNL     1      -0.369   3.439  -1.651  1.00  0.00    -0.400 OA
HETATM   35  H   UNL     1      -0.724   2.806  -0.991  1.00  0.00     0.209 HD
ENDBRANCH  33  34
ENDBRANCH  27  33
ENDBRANCH  26  27
ENDBRANCH   3  26
TORSDOF 7
