REMARK  4 active torsions:
REMARK  status: ('A' for Active; 'I' for Inactive)
REMARK    1  A    between atoms: C_2  and  C_4 
REMARK    2  A    between atoms: C_7  and  N_10 
REMARK       I    between atoms: N_10  and  C_11 
REMARK    3  A    between atoms: C_11  and  C_13 
REMARK    4  A    between atoms: C_13  and  C_14 
ROOT
HETATM    1  N   UNL     1       5.798   3.117  -0.978  1.00  0.00    -0.356 N 
HETATM    2  C   UNL     1       6.317   4.048  -1.857  1.00  0.00     0.223 C 
HETATM    3  O   UNL     1       6.149   3.998  -3.075  1.00  0.00    -0.273 OA
HETATM    4  H   UNL     1       5.789   3.357   0.008  1.00  0.00     0.162 HD
ENDROOT
BRANCH   1   5
HETATM    5  C   UNL     1       4.973   2.006  -1.439  1.00  0.00     0.084 C 
HETATM    6  C   UNL     1       3.485   2.393  -1.475  1.00  0.00     0.025 C 
HETATM    7  C   UNL     1       2.785   2.280  -0.118  1.00  0.00     0.007 C 
HETATM    8  C   UNL     1       3.000   0.911   0.558  1.00  0.00    -0.011 C 
HETATM    9  C   UNL     1       4.522   0.741   0.737  1.00  0.00     0.007 C 
HETATM   10  C   UNL     1       5.263   0.755  -0.600  1.00  0.00     0.025 C 
BRANCH   8  11
HETATM   11  C   UNL     1       2.335  -0.287  -0.195  1.00  0.00    -0.019 C 
HETATM   12  C   UNL     1       2.609  -1.632   0.502  1.00  0.00     0.010 C 
HETATM   13  C   UNL     1       0.815  -0.141  -0.344  1.00  0.00     0.010 C 
ENDBRANCH   8  11
ENDBRANCH   1   5
BRANCH   2  14
HETATM   14  C   UNL     1       7.126   5.147  -1.201  1.00  0.00     0.161 C 
BRANCH  14  15
HETATM   15  C   UNL     1       6.250   6.290  -0.835  1.00  0.00     0.036 A 
HETATM   16  C   UNL     1       5.454   7.080  -1.697  1.00  0.00     0.053 A 
HETATM   17  C   UNL     1       4.816   7.978  -0.874  1.00  0.00     0.024 A 
HETATM   18  C   UNL     1       3.825   9.038  -1.153  1.00  0.00     0.070 C 
HETATM   19  N   UNL     1       5.278   7.716   0.386  1.00  0.00    -0.305 N 
HETATM   20  N   UNL     1       6.136   6.683   0.441  1.00  0.00    -0.304 N 
HETATM   21  H   UNL     1       5.042   8.191   1.251  1.00  0.00     0.186 HD
ATOM     22  HN  UNL     1       6.594   6.290   1.263  1.00  0.00     0.186 HD
ENDBRANCH  14  15
ENDBRANCH   2  14
TORSDOF 4
