REMARK  3 active torsions:
REMARK  status: ('A' for Active; 'I' for Inactive)
REMARK    1  A    between atoms: C_2  and  C_3 
REMARK       I    between atoms: C_3  and  N_5 
REMARK    2  A    between atoms: N_5  and  C_6 
REMARK    3  A    between atoms: C_9  and  N_13 
ROOT
HETATM    1  C   UNL     1       4.956  -0.691   3.039  1.00  0.00     0.107 A 
HETATM    2  C   UNL     1       5.596   0.346   3.694  1.00  0.00     0.051 A 
HETATM    3  C   UNL     1       6.131   0.118   4.963  1.00  0.00     0.034 A 
HETATM    4  C   UNL     1       6.066  -1.140   5.562  1.00  0.00     0.046 A 
HETATM    5  C   UNL     1       5.338  -2.083   4.828  1.00  0.00     0.119 A 
HETATM    6  N   UNL     1       4.757  -1.890   3.609  1.00  0.00    -0.350 N 
ATOM      7  HN  UNL     1       4.202  -2.616   3.156  1.00  0.00     0.166 HD
ENDROOT
BRANCH   1   8
HETATM    8  N   UNL     1       4.473  -0.558   1.736  1.00  0.00    -0.313 N 
HETATM    9  C   UNL     1       5.152   0.138   0.754  1.00  0.00     0.222 C 
HETATM   10  O   UNL     1       6.222   0.718   0.915  1.00  0.00    -0.273 OA
HETATM   11  H   UNL     1       3.873  -1.321   1.455  1.00  0.00     0.170 HD
BRANCH   9  12
HETATM   12  C   UNL     1       4.437   0.124  -0.580  1.00  0.00     0.099 C 
HETATM   13  C   UNL     1       5.352   0.571  -1.710  1.00  0.00     0.014 C 
ENDBRANCH   9  12
ENDBRANCH   1   8
BRANCH   4  14
HETATM   14  N   UNL     1       6.659  -1.393   6.786  1.00  0.00    -0.376 N 
HETATM   15  C   UNL     1       7.849  -0.653   7.257  1.00  0.00     0.149 C 
HETATM   16  C   UNL     1       9.028  -1.626   7.463  1.00  0.00     0.187 C 
HETATM   17  O   UNL     1       8.679  -2.716   8.332  1.00  0.00    -0.388 OA
HETATM   18  C   UNL     1       7.575  -3.455   7.782  1.00  0.00     0.187 C 
HETATM   19  C   UNL     1       6.336  -2.563   7.623  1.00  0.00     0.149 C 
ENDBRANCH   4  14
TORSDOF 3
