REMARK  4 active torsions:
REMARK  status: ('A' for Active; 'I' for Inactive)
REMARK    1  A    between atoms: C_2  and  S_3 
REMARK    2  A    between atoms: S_3  and  C_4 
REMARK    3  A    between atoms: C_7  and  N_9 
REMARK       I    between atoms: N_9  and  C_10 
REMARK       I    between atoms: C_10  and  N_12 
REMARK    4  A    between atoms: N_12  and  C_13 
ROOT
HETATM    1  N   UNL     1       7.882  -0.186  -1.143  1.00  0.00    -0.338 N 
HETATM    2  C   UNL     1       9.227  -0.308  -0.835  1.00  0.00     0.321 C 
HETATM    3  O   UNL     1       9.629  -0.720   0.245  1.00  0.00    -0.247 OA
HETATM    4  N   UNL     1      10.010   0.185  -1.857  1.00  0.00    -0.308 N 
HETATM    5  H   UNL     1       7.654  -0.398  -2.104  1.00  0.00     0.164 HD
HETATM    6  H   UNL     1       9.554   0.894  -2.409  1.00  0.00     0.170 HD
ENDROOT
BRANCH   1   7
HETATM    7  C   UNL     1       6.890  -0.456  -0.112  1.00  0.00     0.087 C 
HETATM    8  C   UNL     1       6.665  -1.953   0.115  1.00  0.00     0.026 C 
HETATM    9  C   UNL     1       5.383  -2.322  -0.634  1.00  0.00     0.017 C 
HETATM   10  C   UNL     1       4.888  -1.038  -1.307  1.00  0.00     0.049 C 
HETATM   11  C   UNL     1       5.512   0.087  -0.483  1.00  0.00     0.040 C 
BRANCH  10  12
HETATM   12  S   UNL     1       3.067  -0.997  -1.357  1.00  0.00    -0.165 SA
BRANCH  12  13
HETATM   13  C   UNL     1       2.802   0.583  -2.219  1.00  0.00     0.070 C 
HETATM   14  C   UNL     1       1.318   0.775  -2.484  1.00  0.00     0.016 C 
ENDBRANCH  12  13
ENDBRANCH  10  12
ENDBRANCH   1   7
BRANCH   4  15
HETATM   15  C   UNL     1      11.415   0.281  -1.739  1.00  0.00     0.051 A 
HETATM   16  C   UNL     1      12.052   1.423  -2.223  1.00  0.00     0.032 A 
HETATM   17  C   UNL     1      13.425   1.572  -2.039  1.00  0.00     0.019 A 
HETATM   18  C   UNL     1      14.125   0.546  -1.425  1.00  0.00     0.088 A 
HETATM   19  N   UNL     1      13.552  -0.596  -0.990  1.00  0.00    -0.373 N 
HETATM   20  C   UNL     1      12.207  -0.696  -1.140  1.00  0.00     0.117 A 
ATOM     21  HN  UNL     1      14.102  -1.345  -0.570  1.00  0.00     0.164 HD
ENDBRANCH   4  15
TORSDOF 4
