REMARK  5 active torsions:
REMARK  status: ('A' for Active; 'I' for Inactive)
REMARK    1  A    between atoms: O_2  and  C_3 
REMARK    2  A    between atoms: C_3  and  C_4 
REMARK    3  A    between atoms: N_7  and  C_8 
REMARK    4  A    between atoms: C_8  and  C_9 
REMARK       I    between atoms: C_9  and  N_11 
REMARK    5  A    between atoms: N_11  and  C_12 
ROOT
HETATM    1  C   UNL     1       9.122  -4.175   1.226  1.00  0.00     0.237 C 
HETATM    2  O   UNL     1       9.548  -5.078   0.513  1.00  0.00    -0.272 OA
HETATM    3  N   UNL     1       7.794  -4.059   1.565  1.00  0.00    -0.355 N 
HETATM    4  H   UNL     1       7.561  -3.450   2.340  1.00  0.00     0.162 HD
ENDROOT
BRANCH   1   5
HETATM    5  C   UNL     1      10.073  -3.200   1.926  1.00  0.00     0.257 C 
BRANCH   5   6
HETATM    6  N   UNL     1       9.552  -1.852   2.037  1.00  0.00    -0.226 N 
HETATM    7  N   UNL     1       9.684  -0.924   1.041  1.00  0.00    -0.274 N 
HETATM    8  C   UNL     1       9.103   0.119   1.551  1.00  0.00     0.167 A 
ATOM      9  HN  UNL     1      10.127  -1.026   0.128  1.00  0.00     0.189 HD
HETATM   10  O   UNL     1       8.591  -0.034   2.792  1.00  0.00    -0.243 OA
HETATM   11  C   UNL     1       8.872  -1.329   3.104  1.00  0.00     0.388 A 
HETATM   12  O   UNL     1       8.525  -1.901   4.122  1.00  0.00    -0.236 OA
BRANCH   8  13
HETATM   13  C   UNL     1       8.895   1.442   0.878  1.00  0.00     0.253 C 
BRANCH  13  14
HETATM   14  O   UNL     1       9.460   2.510   1.624  1.00  0.00    -0.388 OA
HETATM   15  C   UNL     1       9.230   3.762   0.986  1.00  0.00     0.202 C 
ENDBRANCH  13  14
ENDBRANCH   8  13
ENDBRANCH   5   6
ENDBRANCH   1   5
BRANCH   3  16
HETATM   16  C   UNL     1       6.697  -4.839   0.992  1.00  0.00     0.088 C 
HETATM   17  C   UNL     1       6.739  -6.324   1.407  1.00  0.00     0.025 C 
HETATM   18  C   UNL     1       7.185  -7.315   0.338  1.00  0.00     0.002 C 
HETATM   19  C   UNL     1       6.569  -7.020  -1.019  1.00  0.00     0.005 C 
HETATM   20  C   UNL     1       6.960  -5.615  -1.488  1.00  0.00    -0.013 C 
HETATM   21  C   UNL     1       6.466  -5.406  -2.926  1.00  0.00     0.010 C 
HETATM   22  C   UNL     1       6.395  -4.557  -0.510  1.00  0.00     0.008 C 
HETATM   23  C   UNL     1       6.773  -3.127  -0.925  1.00  0.00     0.012 C 
ENDBRANCH   3  16
TORSDOF 5
