REMARK  3 active torsions:
REMARK  status: ('A' for Active; 'I' for Inactive)
REMARK       I    between atoms: C_2  and  N_3 
REMARK       I    between atoms: C_2  and  N_7 
REMARK    1  A    between atoms: N_3  and  C_4 
REMARK    2  A    between atoms: N_7  and  C_8 
REMARK    3  A    between atoms: C_11  and  C_15 
REMARK       I    between atoms: C_15  and  N_17 
ROOT
HETATM    1  C   UNL     1       4.440   0.777   0.886  1.00  0.00     0.051 A 
HETATM    2  C   UNL     1       5.123   1.600  -0.009  1.00  0.00     0.033 A 
HETATM    3  C   UNL     1       6.514   1.545  -0.091  1.00  0.00     0.037 A 
HETATM    4  C   UNL     1       7.189   0.666   0.741  1.00  0.00     0.100 A 
HETATM    5  N   UNL     1       6.563  -0.167   1.616  1.00  0.00    -0.359 N 
ATOM      6  HN  UNL     1       7.083  -0.818   2.204  1.00  0.00     0.165 HD
HETATM    7  C   UNL     1       5.211  -0.086   1.664  1.00  0.00     0.118 A 
ENDROOT
BRANCH   1   8
HETATM    8  N   UNL     1       3.031   0.757   1.021  1.00  0.00    -0.308 N 
HETATM    9  C   UNL     1       2.157   1.675   0.481  1.00  0.00     0.321 C 
HETATM   10  O   UNL     1       2.471   2.698  -0.117  1.00  0.00    -0.247 OA
HETATM   11  N   UNL     1       0.835   1.336   0.704  1.00  0.00    -0.338 N 
HETATM   12  H   UNL     1       0.607   0.438   1.102  1.00  0.00     0.164 HD
HETATM   13  H   UNL     1       2.642   0.088   1.666  1.00  0.00     0.170 HD
BRANCH  11  14
HETATM   14  C   UNL     1      -0.227   2.175   0.240  1.00  0.00     0.086 A 
HETATM   15  C   UNL     1      -1.666   1.778   0.396  1.00  0.00     0.027 A 
HETATM   16  C   UNL     1      -1.040   1.806  -0.969  1.00  0.00     0.027 A 
ENDBRANCH  11  14
ENDBRANCH   1   8
BRANCH   4  17
HETATM   17  C   UNL     1       8.684   0.621   0.673  1.00  0.00     0.270 C 
HETATM   18  O   UNL     1       9.210   0.674  -0.439  1.00  0.00    -0.266 OA
HETATM   19  N   UNL     1       9.418   0.533   1.854  1.00  0.00    -0.347 N 
HETATM   20  C   UNL     1      10.867   0.373   1.789  1.00  0.00     0.126 C 
HETATM   21  C   UNL     1       8.894   0.849   3.182  1.00  0.00     0.126 C 
HETATM   22  C   UNL     1      11.352  -0.668   2.800  1.00  0.00     0.020 C 
HETATM   23  C   UNL     1      10.777  -0.440   4.200  1.00  0.00     0.003 C 
HETATM   24  C   UNL     1       9.261  -0.257   4.159  1.00  0.00     0.020 C 
ENDBRANCH   4  17
TORSDOF 3
