REMARK  7 active torsions:
REMARK  status: ('A' for Active; 'I' for Inactive)
REMARK    1  A    between atoms: C_2  and  C_3 
REMARK    2  A    between atoms: C_2  and  N_10 
REMARK    3  A    between atoms: C_3  and  N_4 
REMARK    4  A    between atoms: N_10  and  C_11 
REMARK    5  A    between atoms: C_11  and  C_13 
REMARK       I    between atoms: C_13  and  N_15 
REMARK    6  A    between atoms: N_15  and  C_16 
REMARK    7  A    between atoms: C_16  and  C_17 
ROOT
HETATM    1  N   UNL     1       3.055   1.360  -0.492  1.00  0.00     0.102 N 
HETATM    2  H   UNL     1       2.646   2.125   0.051  1.00  0.00     0.317 HD
ENDROOT
BRANCH   1   3
HETATM    3  C   UNL     1       2.457   0.081  -0.074  1.00  0.00     0.237 C 
HETATM    4  C   UNL     1       2.781  -0.239   1.392  1.00  0.00     0.044 C 
BRANCH   3   5
HETATM    5  C   UNL     1       0.915   0.110  -0.228  1.00  0.00     0.183 C 
BRANCH   5   6
HETATM    6  N   UNL     1       0.441   0.233  -1.595  1.00  0.00    -0.302 N 
HETATM    7  C   UNL     1       0.085  -0.789  -2.430  1.00  0.00     0.111 A 
HETATM    8  C   UNL     1      -0.441  -0.200  -3.553  1.00  0.00     0.037 A 
HETATM    9  C   UNL     1      -0.376   1.179  -3.297  1.00  0.00     0.108 A 
HETATM   10  N   UNL     1       0.153   1.452  -2.101  1.00  0.00    -0.310 N 
ATOM     11  HN  UNL     1       0.304   2.365  -1.672  1.00  0.00     0.186 HD
ENDBRANCH   5   6
ENDBRANCH   3   5
ENDBRANCH   1   3
BRANCH   1  12
HETATM   12  C   UNL     1       4.532   1.459  -0.416  1.00  0.00     0.308 C 
HETATM   13  C   UNL     1       5.247   0.409  -1.263  1.00  0.00     0.053 C 
BRANCH  12  14
HETATM   14  C   UNL     1       4.949   2.860  -0.913  1.00  0.00     0.251 C 
HETATM   15  O   UNL     1       5.895   3.484  -0.441  1.00  0.00    -0.271 OA
HETATM   16  N   UNL     1       4.202   3.324  -1.976  1.00  0.00    -0.351 N 
HETATM   17  H   UNL     1       3.313   2.840  -2.114  1.00  0.00     0.162 HD
BRANCH  16  18
HETATM   18  C   UNL     1       4.384   4.679  -2.486  1.00  0.00     0.240 C 
BRANCH  18  19
HETATM   19  C   UNL     1       3.729   5.803  -1.672  1.00  0.00     0.403 C 
HETATM   20  F   UNL     1       3.014   5.337  -0.622  1.00  0.00    -0.169 F 
HETATM   21  F   UNL     1       4.642   6.678  -1.196  1.00  0.00    -0.169 F 
HETATM   22  F   UNL     1       2.872   6.508  -2.454  1.00  0.00    -0.169 F 
ENDBRANCH  18  19
ENDBRANCH  16  18
ENDBRANCH  12  14
ENDBRANCH   1  12
TORSDOF 7
