REMARK  3 active torsions:
REMARK  status: ('A' for Active; 'I' for Inactive)
REMARK       I    between atoms: C_2  and  N_3 
REMARK       I    between atoms: C_2  and  N_14 
REMARK    1  A    between atoms: N_3  and  C_4 
REMARK    2  A    between atoms: C_4  and  C_5 
REMARK    3  A    between atoms: N_14  and  C_15 
ROOT
HETATM    1  O   UNL     1       1.795   4.821  -0.006  1.00  0.00    -0.247 OA
HETATM    2  C   UNL     1       0.922   4.370   0.723  1.00  0.00     0.320 C 
HETATM    3  N   UNL     1       0.999   3.110   1.278  1.00  0.00    -0.340 N 
HETATM    4  N   UNL     1      -0.229   5.009   1.121  1.00  0.00    -0.308 N 
HETATM    5  H   UNL     1       0.473   2.946   2.124  1.00  0.00     0.164 HD
HETATM    6  H   UNL     1      -0.928   4.418   1.542  1.00  0.00     0.170 HD
ENDROOT
BRANCH   3   7
HETATM    7  C   UNL     1       2.192   2.294   1.107  1.00  0.00     0.158 C 
BRANCH   7   8
HETATM    8  C   UNL     1       3.452   2.855   1.808  1.00  0.00     0.167 C 
HETATM    9  C   UNL     1       3.255   3.059   3.335  1.00  0.00     0.306 C 
HETATM   10  N   UNL     1       3.150   1.754   3.987  1.00  0.00     0.097 N 
HETATM   11  C   UNL     1       3.017   1.767   5.437  1.00  0.00     0.273 C 
HETATM   12  C   UNL     1       4.390   1.001   3.731  1.00  0.00     0.246 C 
HETATM   13  C   UNL     1       3.435   0.342   5.818  1.00  0.00     0.032 C 
HETATM   14  C   UNL     1       4.144  -0.227   4.583  1.00  0.00     0.040 C 
HETATM   15  C   UNL     1       4.588   0.769   2.235  1.00  0.00     0.204 C 
HETATM   16  O   UNL     1       4.612   2.026   1.532  1.00  0.00    -0.380 OA
ENDBRANCH   7   8
ENDBRANCH   3   7
BRANCH   4  17
HETATM   17  C   UNL     1      -0.596   6.344   0.862  1.00  0.00     0.051 A 
HETATM   18  C   UNL     1       0.221   7.281   0.234  1.00  0.00     0.032 A 
HETATM   19  C   UNL     1      -0.250   8.577   0.019  1.00  0.00     0.019 A 
HETATM   20  C   UNL     1      -1.526   8.899   0.452  1.00  0.00     0.088 A 
HETATM   21  N   UNL     1      -2.342   8.030   1.081  1.00  0.00    -0.373 N 
HETATM   22  C   UNL     1      -1.857   6.779   1.269  1.00  0.00     0.117 A 
ATOM     23  HN  UNL     1      -3.273   8.299   1.398  1.00  0.00     0.164 HD
ENDBRANCH   4  17
TORSDOF 3
