REMARK  6 active torsions:
REMARK  status: ('A' for Active; 'I' for Inactive)
REMARK    1  A    between atoms: N_5  and  C_6 
REMARK    2  A    between atoms: C_6  and  C_7 
REMARK    3  A    between atoms: C_7  and  O_8 
REMARK    4  A    between atoms: C_7  and  C_9 
REMARK    5  A    between atoms: C_9  and  O_10 
REMARK    6  A    between atoms: O_10  and  C_11 
ROOT
HETATM    1  C   UNL     1       5.488   1.687   0.055  1.00  0.00     0.168 C 
ENDROOT
BRANCH   1   2
HETATM    2  N   UNL     1       4.370   0.769   0.005  1.00  0.00    -0.295 N 
HETATM    3  C   UNL     1       3.800   0.130   1.128  1.00  0.00     0.329 A 
HETATM    4  N   UNL     1       2.765  -0.688   0.634  1.00  0.00    -0.302 N 
HETATM    5  O   UNL     1       4.131   0.285   2.293  1.00  0.00    -0.246 OA
HETATM    6  C   UNL     1       1.929  -1.548   1.421  1.00  0.00     0.161 C 
HETATM    7  C   UNL     1       2.686  -0.537  -0.756  1.00  0.00     0.065 A 
HETATM    8  C   UNL     1       3.681   0.363  -1.147  1.00  0.00     0.066 A 
HETATM    9  C   UNL     1       1.824  -1.111  -1.666  1.00  0.00     0.032 A 
HETATM   10  C   UNL     1       3.848   0.727  -2.466  1.00  0.00     0.032 A 
HETATM   11  C   UNL     1       2.978   0.164  -3.404  1.00  0.00     0.002 A 
HETATM   12  C   UNL     1       1.977  -0.747  -3.008  1.00  0.00     0.002 A 
ENDBRANCH   1   2
BRANCH   1  13
HETATM   13  C   UNL     1       5.084   3.166   0.154  1.00  0.00     0.161 C 
BRANCH  13  14
HETATM   14  O   UNL     1       4.354   3.548  -1.023  1.00  0.00    -0.392 OA
HETATM   15  H   UNL     1       3.461   3.166  -0.942  1.00  0.00     0.210 HD
ENDBRANCH  13  14
BRANCH  13  16
HETATM   16  C   UNL     1       4.280   3.487   1.424  1.00  0.00     0.209 C 
BRANCH  16  17
HETATM   17  O   UNL     1       4.081   4.905   1.476  1.00  0.00    -0.349 OA
BRANCH  17  18
HETATM   18  C   UNL     1       3.409   5.389   2.562  1.00  0.00     0.069 A 
HETATM   19  C   UNL     1       3.657   6.734   2.852  1.00  0.00     0.040 A 
HETATM   20  C   UNL     1       3.029   7.352   3.934  1.00  0.00     0.045 A 
HETATM   21  C   UNL     1       2.139   6.623   4.710  1.00  0.00     0.116 A 
HETATM   22  F   UNL     1       1.532   7.212   5.749  1.00  0.00    -0.206 F 
HETATM   23  C   UNL     1       1.864   5.291   4.422  1.00  0.00     0.045 A 
HETATM   24  C   UNL     1       2.501   4.669   3.344  1.00  0.00     0.040 A 
ENDBRANCH  17  18
ENDBRANCH  16  17
ENDBRANCH  13  16
ENDBRANCH   1  13
TORSDOF 6
