REMARK  4 active torsions:
REMARK  status: ('A' for Active; 'I' for Inactive)
REMARK    1  A    between atoms: C_2  and  N_3 
REMARK    2  A    between atoms: C_7  and  N_9 
REMARK       I    between atoms: N_9  and  C_10 
REMARK       I    between atoms: C_10  and  N_12 
REMARK    3  A    between atoms: N_12  and  C_13 
REMARK    4  A    between atoms: C_16  and  N_20 
ROOT
HETATM    1  N   UNL     1       3.847  -4.213  -0.069  1.00  0.00    -0.337 N 
HETATM    2  C   UNL     1       3.317  -5.125   0.821  1.00  0.00     0.321 C 
HETATM    3  O   UNL     1       2.202  -4.966   1.301  1.00  0.00    -0.247 OA
HETATM    4  N   UNL     1       4.138  -6.206   1.035  1.00  0.00    -0.308 N 
HETATM    5  H   UNL     1       4.848  -4.084  -0.039  1.00  0.00     0.164 HD
HETATM    6  H   UNL     1       4.876  -6.346   0.365  1.00  0.00     0.170 HD
ENDROOT
BRANCH   1   7
HETATM    7  C   UNL     1       3.020  -3.065  -0.434  1.00  0.00     0.114 C 
HETATM    8  C   UNL     1       3.379  -2.520  -1.813  1.00  0.00     0.029 C 
HETATM    9  C   UNL     1       2.447  -1.361  -2.165  1.00  0.00     0.032 C 
HETATM   10  C   UNL     1       2.428  -0.287  -1.070  1.00  0.00     0.272 C 
HETATM   11  N   UNL     1       2.157  -0.787   0.287  1.00  0.00     0.090 N 
HETATM   12  C   UNL     1       3.056  -1.918   0.610  1.00  0.00     0.297 C 
BRANCH  11  13
HETATM   13  C   UNL     1       0.753  -1.158   0.539  1.00  0.00     0.268 C 
HETATM   14  C   UNL     1      -0.234   0.001   0.438  1.00  0.00     0.037 C 
ENDBRANCH  11  13
ENDBRANCH   1   7
BRANCH   4  15
HETATM   15  C   UNL     1       3.833  -7.281   1.909  1.00  0.00     0.051 A 
HETATM   16  C   UNL     1       2.827  -7.234   2.860  1.00  0.00     0.035 A 
HETATM   17  C   UNL     1       2.562  -8.344   3.665  1.00  0.00     0.050 A 
HETATM   18  C   UNL     1       3.320  -9.507   3.561  1.00  0.00     0.102 A 
HETATM   19  N   UNL     1       4.318  -9.552   2.646  1.00  0.00    -0.350 N 
HETATM   20  C   UNL     1       4.548  -8.468   1.852  1.00  0.00     0.119 A 
ATOM     21  HN  UNL     1       4.892 -10.390   2.552  1.00  0.00     0.166 HD
BRANCH  18  22
HETATM   22  N   UNL     1       3.027 -10.640   4.310  1.00  0.00    -0.376 N 
HETATM   23  C   UNL     1       3.922 -11.785   4.182  1.00  0.00     0.150 C 
HETATM   24  C   UNL     1       2.313 -10.568   5.580  1.00  0.00     0.150 C 
ENDBRANCH  18  22
ENDBRANCH   4  15
TORSDOF 4
