REMARK  3 active torsions:
REMARK  status: ('A' for Active; 'I' for Inactive)
REMARK    1  A    between atoms: C_1  and  C_8 
REMARK    2  A    between atoms: C_7  and  C_14 
REMARK    3  A    between atoms: C_12  and  O_13 
ROOT
HETATM    1  C   UNL     1       2.948  -1.508  -1.288  1.00  0.00     0.131 A 
HETATM    2  N   UNL     1       2.383  -1.851  -2.465  1.00  0.00    -0.332 N 
ATOM      3  HN  UNL     1       1.517  -2.365  -2.626  1.00  0.00     0.168 HD
HETATM    4  N   UNL     1       4.097  -0.822  -1.469  1.00  0.00    -0.286 N 
ATOM      5  HN  UNL     1       4.708  -0.451  -0.742  1.00  0.00     0.188 HD
HETATM    6  N   UNL     1       4.272  -0.727  -2.777  1.00  0.00    -0.288 N 
HETATM    7  C   UNL     1       3.239  -1.350  -3.375  1.00  0.00     0.096 A 
HETATM    8  H   UNL     1       5.078  -0.253  -3.237  1.00  0.00     0.188 HD
ENDROOT
BRANCH   1   9
HETATM    9  C   UNL     1       2.324  -1.840   0.056  1.00  0.00     0.291 C 
HETATM   10  N   UNL     1       2.159  -3.300   0.215  1.00  0.00     0.098 N 
HETATM   11  C   UNL     1       3.198  -3.745   1.154  1.00  0.00     0.302 C 
HETATM   12  H   UNL     1       2.197  -3.821  -0.692  1.00  0.00     0.317 HD
HETATM   13  C   UNL     1       4.135  -2.559   1.350  1.00  0.00     0.148 C 
HETATM   14  C   UNL     1       3.167  -1.401   1.256  1.00  0.00     0.077 C 
BRANCH  13  15
HETATM   15  O   UNL     1       4.859  -2.606   2.553  1.00  0.00    -0.394 OA
HETATM   16  H   UNL     1       4.207  -2.595   3.302  1.00  0.00     0.210 HD
ENDBRANCH  13  15
ENDBRANCH   1   9
BRANCH   7  17
HETATM   17  C   UNL     1       3.071  -1.479  -4.859  1.00  0.00     0.073 C 
HETATM   18  C   UNL     1       1.760  -0.853  -5.327  1.00  0.00     0.013 C 
ENDBRANCH   7  17
TORSDOF 3
