REMARK  5 active torsions:
REMARK  status: ('A' for Active; 'I' for Inactive)
REMARK    1  A    between atoms: O_1  and  C_2 
REMARK    2  A    between atoms: C_2  and  C_20 
REMARK       I    between atoms: N_5  and  C_8 
REMARK       I    between atoms: C_8  and  N_10 
REMARK    3  A    between atoms: N_10  and  C_11 
REMARK    4  A    between atoms: C_11  and  C_12 
REMARK    5  A    between atoms: C_12  and  C_13 
ROOT
HETATM    1  C   UNL     1       2.447  -0.061   0.044  1.00  0.00     0.158 C 
HETATM    2  C   UNL     1       2.959   0.976  -0.976  1.00  0.00     0.067 C 
HETATM    3  C   UNL     1       2.637   0.605  -2.423  1.00  0.00     0.131 C 
HETATM    4  N   UNL     1       3.073  -0.758  -2.725  1.00  0.00    -0.334 N 
HETATM    5  C   UNL     1       2.550  -1.790  -1.832  1.00  0.00     0.131 C 
HETATM    6  C   UNL     1       2.885  -1.477  -0.377  1.00  0.00     0.067 C 
HETATM    7  C   UNL     1       3.934  -1.150  -3.738  1.00  0.00     0.318 C 
HETATM    8  O   UNL     1       4.334  -2.305  -3.857  1.00  0.00    -0.247 OA
HETATM    9  N   UNL     1       4.328  -0.163  -4.608  1.00  0.00    -0.343 N 
HETATM   10  H   UNL     1       3.611   0.511  -4.820  1.00  0.00     0.164 HD
ENDROOT
BRANCH   9  11
HETATM   11  C   UNL     1       5.206  -0.524  -5.717  1.00  0.00     0.129 C 
BRANCH  11  12
HETATM   12  C   UNL     1       5.637   0.693  -6.535  1.00  0.00     0.060 C 
BRANCH  12  13
HETATM   13  C   UNL     1       6.576   0.347  -7.659  1.00  0.00    -0.041 A 
HETATM   14  C   UNL     1       7.961   0.326  -7.469  1.00  0.00     0.010 A 
HETATM   15  C   UNL     1       8.803   0.026  -8.538  1.00  0.00     0.018 A 
HETATM   16  C   UNL     1       8.229  -0.252  -9.766  1.00  0.00     0.087 A 
HETATM   17  N   UNL     1       6.896  -0.260  -9.986  1.00  0.00    -0.375 N 
HETATM   18  C   UNL     1       6.104   0.033  -8.931  1.00  0.00     0.094 A 
ATOM     19  HN  UNL     1       6.507  -0.477 -10.903  1.00  0.00     0.164 HD
ENDBRANCH  12  13
ENDBRANCH  11  12
ENDBRANCH   9  11
BRANCH   1  20
HETATM   20  O   UNL     1       0.999  -0.003   0.054  1.00  0.00    -0.381 OA
HETATM   21  H   UNL     1       0.641  -0.311  -0.793  1.00  0.00     0.211 HD
ENDBRANCH   1  20
BRANCH   1  22
HETATM   22  C   UNL     1       3.003   0.269   1.470  1.00  0.00     0.418 C 
HETATM   23  F   UNL     1       2.011   0.502   2.362  1.00  0.00    -0.168 F 
HETATM   24  F   UNL     1       3.749  -0.743   1.975  1.00  0.00    -0.168 F 
HETATM   25  F   UNL     1       3.790   1.372   1.466  1.00  0.00    -0.168 F 
ENDBRANCH   1  22
TORSDOF 5
