REMARK  3 active torsions:
REMARK  status: ('A' for Active; 'I' for Inactive)
REMARK    1  A    between atoms: C_2  and  C_3 
REMARK    2  A    between atoms: C_2  and  N_10 
REMARK    3  A    between atoms: C_3  and  N_4 
REMARK       I    between atoms: N_10  and  C_11 
REMARK       I    between atoms: C_11  and  N_13 
ROOT
HETATM    1  N   UNL     1       2.991   0.872  -1.137  1.00  0.00    -0.337 N 
HETATM    2  C   UNL     1       4.335   1.120  -1.298  1.00  0.00     0.318 C 
HETATM    3  O   UNL     1       5.163   0.728  -0.481  1.00  0.00    -0.247 OA
HETATM    4  N   UNL     1       4.673   1.845  -2.433  1.00  0.00    -0.333 N 
HETATM    5  C   UNL     1       3.725   2.532  -3.320  1.00  0.00     0.129 C 
HETATM    6  C   UNL     1       3.566   3.988  -2.900  1.00  0.00     0.050 C 
HETATM    7  C   UNL     1       4.587   4.921  -3.558  1.00  0.00     0.273 C 
HETATM    8  N   UNL     1       5.955   4.412  -3.722  1.00  0.00     0.085 N 
HETATM    9  C   UNL     1       6.858   5.505  -4.082  1.00  0.00     0.309 C 
HETATM   10  C   UNL     1       6.455   3.650  -2.563  1.00  0.00     0.291 C 
HETATM   11  C   UNL     1       6.090   2.151  -2.660  1.00  0.00     0.157 C 
HETATM   12  H   UNL     1       2.496   0.719  -2.005  1.00  0.00     0.164 HD
ENDROOT
BRANCH   1  13
HETATM   13  C   UNL     1       2.511   0.056  -0.018  1.00  0.00     0.102 C 
HETATM   14  C   UNL     1       2.388   0.918   1.242  1.00  0.00     0.034 C 
BRANCH  13  15
HETATM   15  C   UNL     1       1.151  -0.589  -0.322  1.00  0.00     0.172 C 
BRANCH  15  16
HETATM   16  N   UNL     1       1.194  -1.476  -1.472  1.00  0.00    -0.302 N 
HETATM   17  C   UNL     1       1.444  -2.819  -1.467  1.00  0.00     0.111 A 
HETATM   18  C   UNL     1       1.322  -3.230  -2.773  1.00  0.00     0.037 A 
HETATM   19  C   UNL     1       1.006  -2.062  -3.489  1.00  0.00     0.108 A 
HETATM   20  N   UNL     1       0.950  -0.983  -2.700  1.00  0.00    -0.310 N 
ATOM     21  HN  UNL     1       0.766  -0.016  -2.966  1.00  0.00     0.186 HD
ENDBRANCH  15  16
ENDBRANCH  13  15
ENDBRANCH   1  13
TORSDOF 3
