REMARK  4 active torsions:
REMARK  status: ('A' for Active; 'I' for Inactive)
REMARK    1  A    between atoms: C_2  and  N_3 
REMARK    2  A    between atoms: C_5  and  N_6 
REMARK       I    between atoms: N_6  and  C_7 
REMARK       I    between atoms: C_7  and  N_9 
REMARK    3  A    between atoms: N_9  and  C_10 
REMARK    4  A    between atoms: C_10  and  C_11 
ROOT
HETATM    1  N   UNL     1       4.316  -2.059  -4.151  1.00  0.00    -0.306 N 
HETATM    2  C   UNL     1       4.949  -1.064  -4.862  1.00  0.00     0.320 C 
HETATM    3  O   UNL     1       5.157   0.083  -4.483  1.00  0.00    -0.247 OA
HETATM    4  N   UNL     1       5.359  -1.513  -6.107  1.00  0.00    -0.342 N 
HETATM    5  H   UNL     1       4.355  -2.998  -4.517  1.00  0.00     0.171 HD
HETATM    6  H   UNL     1       4.737  -2.182  -6.536  1.00  0.00     0.164 HD
ENDROOT
BRANCH   1   7
HETATM    7  C   UNL     1       3.748  -1.897  -2.899  1.00  0.00     0.070 A 
HETATM    8  C   UNL     1       3.629  -0.744  -2.160  1.00  0.00     0.141 A 
HETATM    9  N   UNL     1       2.983  -1.087  -1.009  1.00  0.00    -0.302 N 
HETATM   10  N   UNL     1       2.675  -2.397  -0.938  1.00  0.00    -0.308 N 
HETATM   11  C   UNL     1       3.144  -2.885  -2.091  1.00  0.00     0.138 A 
ATOM     12  HN  UNL     1       2.199  -2.896  -0.186  1.00  0.00     0.186 HD
BRANCH   9  13
HETATM   13  C   UNL     1       2.610  -0.188   0.066  1.00  0.00     0.143 C 
HETATM   14  C   UNL     1       1.222   0.392  -0.139  1.00  0.00     0.028 C 
ENDBRANCH   9  13
ENDBRANCH   1   7
BRANCH   4  15
HETATM   15  C   UNL     1       6.002  -0.557  -6.989  1.00  0.00     0.131 C 
BRANCH  15  16
HETATM   16  C   UNL     1       6.480  -1.174  -8.294  1.00  0.00     0.029 C 
HETATM   17  C   UNL     1       7.541  -2.248  -8.152  1.00  0.00     0.034 C 
HETATM   18  C   UNL     1       8.369  -2.118  -9.421  1.00  0.00     0.168 C 
HETATM   19  O   UNL     1       7.953  -0.924 -10.095  1.00  0.00    -0.391 OA
HETATM   20  C   UNL     1       7.177  -0.154  -9.174  1.00  0.00     0.173 C 
ENDBRANCH  15  16
ENDBRANCH   4  15
TORSDOF 4
