REMARK  4 active torsions:
REMARK  status: ('A' for Active; 'I' for Inactive)
REMARK    1  A    between atoms: C_2  and  C_3 
REMARK    2  A    between atoms: C_3  and  N_5 
REMARK       I    between atoms: N_5  and  C_6 
REMARK    3  A    between atoms: C_6  and  C_8 
REMARK    4  A    between atoms: C_8  and  N_9 
ROOT
HETATM    1  N   UNL     1       7.201   2.419   1.459  1.00  0.00    -0.301 N 
HETATM    2  C   UNL     1       7.455   3.660   2.007  1.00  0.00     0.102 A 
HETATM    3  C   UNL     1       8.011   4.643   1.297  1.00  0.00     0.092 A 
HETATM    4  C   UNL     1       8.366   4.389  -0.108  1.00  0.00     0.250 A 
HETATM    5  O   UNL     1       8.913   5.249  -0.789  1.00  0.00    -0.268 OA
HETATM    6  N   UNL     1       8.046   3.152  -0.589  1.00  0.00    -0.275 N 
HETATM    7  C   UNL     1       7.455   2.141   0.124  1.00  0.00     0.329 A 
HETATM    8  O   UNL     1       7.184   1.067  -0.411  1.00  0.00    -0.246 OA
HETATM    9  H   UNL     1       8.269   2.964  -1.552  1.00  0.00     0.173 HD
ENDROOT
BRANCH   1  10
HETATM   10  C   UNL     1       6.617   1.366   2.288  1.00  0.00     0.235 C 
BRANCH  10  11
HETATM   11  C   UNL     1       5.094   1.462   2.313  1.00  0.00     0.236 C 
HETATM   12  N   UNL     1       4.450   0.708   1.353  1.00  0.00    -0.355 N 
HETATM   13  H   UNL     1       5.009   0.165   0.701  1.00  0.00     0.162 HD
HETATM   14  O   UNL     1       4.506   2.209   3.093  1.00  0.00    -0.272 OA
BRANCH  12  15
HETATM   15  C   UNL     1       2.997   0.682   1.235  1.00  0.00     0.080 C 
HETATM   16  C   UNL     1       2.409  -0.365   2.182  1.00  0.00     0.032 C 
BRANCH  15  17
HETATM   17  C   UNL     1       2.557   0.398  -0.209  1.00  0.00     0.020 C 
HETATM   18  C   UNL     1       3.076   1.432  -1.199  1.00  0.00     0.007 C 
ENDBRANCH  15  17
ENDBRANCH  12  15
ENDBRANCH  10  11
ENDBRANCH   1  10
TORSDOF 4
