REMARK  5 active torsions:
REMARK  status: ('A' for Active; 'I' for Inactive)
REMARK    1  A    between atoms: C_2  and  N_3 
REMARK    2  A    between atoms: C_2  and  C_11 
REMARK    3  A    between atoms: N_3  and  C_4 
REMARK    4  A    between atoms: C_4  and  C_5 
REMARK       I    between atoms: C_5  and  N_7 
REMARK    5  A    between atoms: C_11  and  N_13 
ROOT
HETATM    1  C   UNL     1       0.946  -0.066   0.061  1.00  0.00     0.045 C 
HETATM    2  C   UNL     1       2.472   0.088   0.071  1.00  0.00     0.241 C 
ENDROOT
BRANCH   2   3
HETATM    3  N   UNL     1       2.862   1.281  -0.700  1.00  0.00     0.098 N 
HETATM    4  H   UNL     1       2.489   1.239  -1.652  1.00  0.00     0.317 HD
BRANCH   3   5
HETATM    5  C   UNL     1       2.468   2.573  -0.113  1.00  0.00     0.372 C 
BRANCH   5   6
HETATM    6  C   UNL     1       3.035   3.684  -1.001  1.00  0.00     0.247 C 
HETATM    7  O   UNL     1       2.524   3.943  -2.094  1.00  0.00    -0.271 OA
HETATM    8  N   UNL     1       4.160   4.305  -0.548  1.00  0.00    -0.351 N 
HETATM    9  C   UNL     1       4.935   5.370  -1.156  1.00  0.00     0.127 C 
HETATM   10  C   UNL     1       4.689   4.515   0.785  1.00  0.00     0.127 C 
HETATM   11  C   UNL     1       5.163   5.881   0.270  1.00  0.00     0.040 C 
ENDBRANCH   5   6
ENDBRANCH   3   5
ENDBRANCH   2   3
BRANCH   2  12
HETATM   12  C   UNL     1       3.085   0.009   1.506  1.00  0.00     0.136 C 
HETATM   13  C   UNL     1       2.716  -1.280   2.248  1.00  0.00     0.036 C 
BRANCH  12  14
HETATM   14  N   UNL     1       4.542   0.172   1.497  1.00  0.00    -0.297 N 
HETATM   15  C   UNL     1       5.467  -0.632   0.882  1.00  0.00     0.112 A 
HETATM   16  C   UNL     1       6.695  -0.083   1.156  1.00  0.00     0.037 A 
HETATM   17  C   UNL     1       6.415   1.032   1.963  1.00  0.00     0.108 A 
HETATM   18  N   UNL     1       5.109   1.175   2.204  1.00  0.00    -0.310 N 
ATOM     19  HN  UNL     1       4.648   1.876   2.785  1.00  0.00     0.186 HD
ENDBRANCH  12  14
ENDBRANCH   2  12
TORSDOF 5
