REMARK  3 active torsions:
REMARK  status: ('A' for Active; 'I' for Inactive)
REMARK    1  A    between atoms: C_2  and  C_3 
REMARK    2  A    between atoms: C_2  and  N_10 
REMARK    3  A    between atoms: C_3  and  N_4 
REMARK       I    between atoms: N_10  and  C_11 
REMARK       I    between atoms: C_11  and  N_13 
REMARK       I    between atoms: N_17  and  C_20 
ROOT
HETATM    1  N   UNL     1       3.099   1.178  -0.767  1.00  0.00    -0.337 N 
HETATM    2  C   UNL     1       4.442   1.284  -1.033  1.00  0.00     0.318 C 
HETATM    3  O   UNL     1       5.252   0.503  -0.544  1.00  0.00    -0.247 OA
HETATM    4  N   UNL     1       4.796   2.299  -1.911  1.00  0.00    -0.333 N 
HETATM    5  C   UNL     1       3.884   3.302  -2.473  1.00  0.00     0.129 C 
HETATM    6  C   UNL     1       3.987   4.607  -1.684  1.00  0.00     0.040 C 
HETATM    7  C   UNL     1       5.045   5.550  -2.265  1.00  0.00     0.127 C 
HETATM    8  N   UNL     1       6.301   4.913  -2.666  1.00  0.00    -0.351 N 
HETATM    9  C   UNL     1       6.802   3.812  -1.825  1.00  0.00     0.145 C 
HETATM   10  C   UNL     1       6.220   2.454  -2.255  1.00  0.00     0.147 C 
HETATM   11  C   UNL     1       7.025   5.207  -3.815  1.00  0.00     0.215 C 
HETATM   12  O   UNL     1       8.039   4.572  -4.119  1.00  0.00    -0.274 OA
HETATM   13  C   UNL     1       6.569   6.307  -4.742  1.00  0.00     0.117 C 
HETATM   14  H   UNL     1       2.606   2.055  -0.741  1.00  0.00     0.164 HD
ENDROOT
BRANCH   1  15
HETATM   15  C   UNL     1       2.556   0.124   0.108  1.00  0.00     0.102 C 
HETATM   16  C   UNL     1       1.064   0.404   0.316  1.00  0.00     0.034 C 
BRANCH  15  17
HETATM   17  C   UNL     1       2.804  -1.288  -0.465  1.00  0.00     0.172 C 
BRANCH  17  18
HETATM   18  N   UNL     1       2.325  -2.360   0.385  1.00  0.00    -0.302 N 
HETATM   19  C   UNL     1       3.024  -3.002   1.368  1.00  0.00     0.111 A 
HETATM   20  C   UNL     1       2.200  -3.998   1.836  1.00  0.00     0.037 A 
HETATM   21  C   UNL     1       1.023  -3.873   1.074  1.00  0.00     0.108 A 
HETATM   22  N   UNL     1       1.095  -2.876   0.189  1.00  0.00    -0.310 N 
ATOM     23  HN  UNL     1       0.385  -2.575  -0.479  1.00  0.00     0.186 HD
ENDBRANCH  17  18
ENDBRANCH  15  17
ENDBRANCH   1  15
TORSDOF 3
