REMARK  1 active torsions:
REMARK  status: ('A' for Active; 'I' for Inactive)
REMARK    1  A    between atoms: C_13  and  C_14 
ROOT
HETATM    1  C   UNL     4       2.978  -2.380   0.031  1.00  0.00     0.315 C 
HETATM    2  C   UNL     4       3.627  -3.341  -0.998  1.00  0.00     0.313 C 
HETATM    3  N   UNL     4       2.968  -4.656  -0.942  1.00  0.00     0.087 N 
HETATM    4  C   UNL     4       3.064  -5.238   0.403  1.00  0.00     0.299 C 
HETATM    5  C   UNL     4       2.469  -4.271   1.441  1.00  0.00     0.300 C 
HETATM    6  N   UNL     4       3.131  -2.956   1.379  1.00  0.00     0.098 N 
HETATM    7  H   UNL     4       3.439  -5.302  -1.619  1.00  0.00     0.316 HD
HETATM    8  H   UNL     4       4.147  -3.075   1.610  1.00  0.00     0.317 HD
ENDROOT
BRANCH   1   9
HETATM    9  C   UNL     4       3.598  -0.994  -0.055  1.00  0.00     0.118 A 
HETATM   10  N   UNL     4       2.936   0.188  -0.226  1.00  0.00    -0.348 N 
HETATM   11  C   UNL     4       1.506   0.482  -0.307  1.00  0.00     0.157 C 
HETATM   12  C   UNL     4       3.891   1.132  -0.282  1.00  0.00     0.108 A 
HETATM   13  C   UNL     4       5.114   0.527  -0.128  1.00  0.00     0.106 A 
HETATM   14  N   UNL     4       4.935  -0.807   0.021  1.00  0.00    -0.352 N 
ATOM     15  HN  UNL     4       5.654  -1.517   0.160  1.00  0.00     0.166 HD
ENDBRANCH   1   9
TORSDOF 1
