REMARK  8 active torsions:
REMARK  status: ('A' for Active; 'I' for Inactive)
REMARK    1  A    between atoms: N_1  and  C1*_2 
REMARK    2  A    between atoms: C2*_7  and  O2*_22 
REMARK    3  A    between atoms: C_10  and  N_13 
REMARK    4  A    between atoms: C3*_11  and  O3*_23 
REMARK    5  A    between atoms: C4*_12  and  C5*_25 
REMARK    6  A    between atoms: N_13  and  C_19 
REMARK    7  A    between atoms: C_18  and  C_19 
REMARK    8  A    between atoms: C5*_25  and  O5*_27 
ROOT
HETATM    1  N   UNL     1       2.957   2.334  -1.219  1.00  0.00    -0.297 N 
HETATM    2  C   UNL     1       3.595   1.156  -1.512  1.00  0.00     0.142 A 
HETATM    3  C   UNL     1       4.373   1.440  -2.626  1.00  0.00     0.122 A 
HETATM    4  N   UNL     1       4.178   2.741  -3.033  1.00  0.00    -0.346 N 
ATOM      5  HN  UNL     1       4.631   3.222  -3.810  1.00  0.00     0.167 HD
HETATM    6  C   UNL     1       3.288   3.226  -2.209  1.00  0.00     0.188 A 
HETATM    7  C   UNL     1       5.174   0.406  -3.146  1.00  0.00     0.133 A 
HETATM    8  N   UNL     1       3.506  -0.026  -0.879  1.00  0.00    -0.336 N 
ATOM      9  HN  UNL     1       2.926  -0.199  -0.058  1.00  0.00     0.168 HD
HETATM   10  N   UNL     1       5.109  -0.808  -2.533  1.00  0.00    -0.337 N 
ATOM     11  HN  UNL     1       5.670  -1.591  -2.867  1.00  0.00     0.168 HD
HETATM   12  C   UNL     1       4.284  -0.953  -1.471  1.00  0.00     0.183 A 
ENDROOT
BRANCH   1  13
HETATM   13  C1* UNL     1       2.036   2.655  -0.147  1.00  0.00     0.262 C 
HETATM   14  C2* UNL     1       2.158   1.903   1.182  1.00  0.00     0.198 C 
HETATM   15  C3* UNL     1       2.601   2.954   2.203  1.00  0.00     0.182 C 
HETATM   16  C4* UNL     1       2.986   4.175   1.377  1.00  0.00     0.179 C 
HETATM   17  O4* UNL     1       2.216   4.064   0.164  1.00  0.00    -0.353 OA
BRANCH  14  18
HETATM   18  O2* UNL     1       0.882   1.350   1.551  1.00  0.00    -0.388 OA
HETATM   19  H2* UNL     1       0.584   1.864   2.332  1.00  0.00     0.210 HD
ENDBRANCH  14  18
BRANCH  15  20
HETATM   20  O3* UNL     1       1.487   3.237   3.078  1.00  0.00    -0.390 OA
HETATM   21  H3* UNL     1       1.082   4.081   2.808  1.00  0.00     0.210 HD
ENDBRANCH  15  20
BRANCH  16  22
HETATM   22  C5* UNL     1       4.491   4.254   1.087  1.00  0.00     0.198 C 
BRANCH  22  23
HETATM   23  O5* UNL     1       4.793   5.425   0.332  1.00  0.00    -0.398 OA
HETATM   24  H5* UNL     1       4.562   5.246  -0.598  1.00  0.00     0.209 HD
ENDBRANCH  22  23
ENDBRANCH  16  22
ENDBRANCH   1  13
BRANCH   7  25
HETATM   25  N   UNL     1       6.002   0.501  -4.248  1.00  0.00    -0.366 N 
HETATM   26  H   UNL     1       6.604  -0.299  -4.365  1.00  0.00     0.161 HD
BRANCH  25  27
HETATM   27  C   UNL     1       6.418   1.794  -4.787  1.00  0.00     0.114 C 
HETATM   28  C   UNL     1       6.897   1.568  -6.226  1.00  0.00     0.037 C 
BRANCH  27  29
HETATM   29  C   UNL     1       7.527   2.454  -3.974  1.00  0.00    -0.014 A 
HETATM   30  C   UNL     1       7.637   3.856  -3.855  1.00  0.00     0.042 A 
HETATM   31 CL   UNL     1       6.448   4.942  -4.485  1.00  0.00    -0.084 Cl
HETATM   32  C   UNL     1       8.745   4.439  -3.225  1.00  0.00     0.024 A 
HETATM   33  C   UNL     1       9.751   3.643  -2.684  1.00  0.00     0.002 A 
HETATM   34  C   UNL     1       9.640   2.258  -2.750  1.00  0.00     0.001 A 
HETATM   35  C   UNL     1       8.544   1.674  -3.388  1.00  0.00     0.011 A 
ENDBRANCH  27  29
ENDBRANCH  25  27
ENDBRANCH   7  25
TORSDOF 8
