REMARK  7 active torsions:
REMARK  status: ('A' for Active; 'I' for Inactive)
REMARK    1  A    between atoms: N_2  and  C_3 
REMARK    2  A    between atoms: N_2  and  C_20 
REMARK    3  A    between atoms: C_3  and  C_4 
REMARK    4  A    between atoms: C_4  and  O_5 
REMARK    5  A    between atoms: C_4  and  C_6 
REMARK    6  A    between atoms: C_6  and  N_7 
REMARK    7  A    between atoms: C_20  and  C_21 
ROOT
HETATM    1  C   UNL     1       3.041  -0.203   3.772  1.00  0.00     0.182 C 
ENDROOT
BRANCH   1   2
HETATM    2  C   UNL     1       2.337   0.190   2.467  1.00  0.00     0.166 C 
BRANCH   2   3
HETATM    3  C   UNL     1       2.847  -0.624   1.251  1.00  0.00     0.305 C 
BRANCH   3   4
HETATM    4  N   UNL     1       2.230  -0.286  -0.051  1.00  0.00     0.090 N 
HETATM    5  C   UNL     1       2.751  -1.186  -1.086  1.00  0.00     0.310 C 
BRANCH   4   6
HETATM    6  C   UNL     1       2.435   1.129  -0.409  1.00  0.00     0.310 C 
BRANCH   6   7
HETATM    7  C   UNL     1       1.708   1.546  -1.672  1.00  0.00    -0.030 A 
HETATM    8  C   UNL     1       0.313   1.437  -1.752  1.00  0.00     0.009 A 
HETATM    9  C   UNL     1      -0.357   1.799  -2.920  1.00  0.00     0.001 A 
HETATM   10  C   UNL     1       0.361   2.278  -4.014  1.00  0.00     0.000 A 
HETATM   11  C   UNL     1       1.749   2.403  -3.939  1.00  0.00     0.001 A 
HETATM   12  C   UNL     1       2.420   2.041  -2.771  1.00  0.00     0.009 A 
ENDBRANCH   6   7
ENDBRANCH   4   6
ENDBRANCH   3   4
ENDBRANCH   2   3
BRANCH   2  13
HETATM   13  O   UNL     1       0.915   0.089   2.604  1.00  0.00    -0.392 OA
HETATM   14  H   UNL     1       0.725  -0.820   2.921  1.00  0.00     0.210 HD
ENDBRANCH   2  13
ENDBRANCH   1   2
BRANCH   1  15
HETATM   15  N   UNL     1       2.890  -1.604   4.121  1.00  0.00    -0.284 N 
HETATM   16  N   UNL     1       1.639  -2.089   4.339  1.00  0.00    -0.308 N 
HETATM   17  C   UNL     1       1.844  -3.347   4.746  1.00  0.00     0.122 A 
ATOM     18  HN  UNL     1       0.749  -1.605   4.220  1.00  0.00     0.186 HD
HETATM   19  C   UNL     1       3.202  -3.674   4.747  1.00  0.00     0.032 A 
HETATM   20  C   UNL     1       3.954  -4.840   5.094  1.00  0.00     0.122 A 
HETATM   21  C   UNL     1       3.853  -2.548   4.309  1.00  0.00     0.133 A 
HETATM   22  N   UNL     1       5.253  -4.838   5.005  1.00  0.00    -0.306 N 
HETATM   23  N   UNL     1       5.913  -3.688   4.541  1.00  0.00    -0.261 N 
ATOM     24  HN  UNL     1       5.787  -5.665   5.270  1.00  0.00     0.186 HD
HETATM   25  C   UNL     1       7.359  -3.742   4.513  1.00  0.00     0.181 C 
HETATM   26  C   UNL     1       5.275  -2.492   4.151  1.00  0.00     0.290 A 
HETATM   27  O   UNL     1       5.873  -1.512   3.718  1.00  0.00    -0.264 OA
ENDBRANCH   1  15
TORSDOF 7
