REMARK  5 active torsions:
REMARK  status: ('A' for Active; 'I' for Inactive)
REMARK    1  A    between atoms: N_1  and  C1*_2 
REMARK    2  A    between atoms: C2*_6  and  O2*_15 
REMARK    3  A    between atoms: C3*_10  and  O3*_16 
REMARK    4  A    between atoms: C4*_11  and  C5*_17 
REMARK    5  A    between atoms: C5*_17  and  O5*_18 
ROOT
HETATM    1  C1* UNL     1      -1.452  -2.488  -0.185  1.00  0.00     0.264 C 
HETATM    2  C2* UNL     1      -2.486  -2.659   0.944  1.00  0.00     0.198 C 
HETATM    3  O4* UNL     1      -0.639  -3.671  -0.202  1.00  0.00    -0.353 OA
HETATM    4  C3* UNL     1      -2.391  -4.143   1.310  1.00  0.00     0.182 C 
HETATM    5  C4* UNL     1      -1.517  -4.748   0.215  1.00  0.00     0.179 C 
ENDROOT
BRANCH   1   6
HETATM    6  N   UNL     1      -0.662  -1.267  -0.099  1.00  0.00    -0.278 N 
HETATM    7  C   UNL     1      -1.274  -0.113  -0.567  1.00  0.00     0.331 A 
HETATM    8  N   UNL     1      -0.501   1.015  -0.565  1.00  0.00    -0.274 N 
HETATM    9  O   UNL     1      -2.440  -0.085  -0.957  1.00  0.00    -0.246 OA
HETATM   10  C   UNL     1       0.783   1.116  -0.100  1.00  0.00     0.268 A 
HETATM   11  H   UNL     1      -0.911   1.855  -0.949  1.00  0.00     0.173 HD
HETATM   12  C   UNL     1       1.360  -0.133   0.475  1.00  0.00     0.094 A 
HETATM   13  O   UNL     1       1.398   2.179  -0.159  1.00  0.00    -0.267 OA
HETATM   14  C   UNL     1       0.612  -1.244   0.438  1.00  0.00     0.123 A 
HETATM   15 BR   UNL     1       3.073  -0.092   1.198  1.00  0.00    -0.044 Br
ENDBRANCH   1   6
BRANCH   2  16
HETATM   16  O2* UNL     1      -3.818  -2.354   0.506  1.00  0.00    -0.388 OA
HETATM   17  H2* UNL     1      -3.776  -1.502   0.021  1.00  0.00     0.210 HD
ENDBRANCH   2  16
BRANCH   4  18
HETATM   18  O3* UNL     1      -3.664  -4.761   1.433  1.00  0.00    -0.390 OA
HETATM   19  H3* UNL     1      -4.313  -4.106   1.094  1.00  0.00     0.210 HD
ENDBRANCH   4  18
BRANCH   5  20
HETATM   20  C5* UNL     1      -2.309  -5.281  -0.991  1.00  0.00     0.198 C 
BRANCH  20  21
HETATM   21  O5* UNL     1      -1.409  -5.762  -1.989  1.00  0.00    -0.398 OA
HETATM   22  H5* UNL     1      -0.698  -5.100  -2.070  1.00  0.00     0.209 HD
ENDBRANCH  20  21
ENDBRANCH   5  20
TORSDOF 5
