REMARK  4 active torsions:
REMARK  status: ('A' for Active; 'I' for Inactive)
REMARK    1  A    between atoms: C_2  and  C_5 
REMARK    2  A    between atoms: C_5  and  C_6 
REMARK       I    between atoms: C_6  and  N_8 
REMARK    3  A    between atoms: N_8  and  C_9 
REMARK    4  A    between atoms: C_12  and  N_16 
ROOT
HETATM    1  C   UNL     1       6.799  -2.516   0.915  1.00  0.00     0.107 C 
HETATM    2  C   UNL     1       7.487  -1.316   0.863  1.00  0.00     0.051 C 
HETATM    3  C   UNL     1       8.876  -1.342   0.760  1.00  0.00     0.034 C 
HETATM    4  C   UNL     1       9.578  -2.547   0.671  1.00  0.00     0.046 C 
HETATM    5  C   UNL     1       8.773  -3.684   0.839  1.00  0.00     0.119 C 
HETATM    6  N   UNL     1       7.418  -3.702   0.993  1.00  0.00    -0.350 N 
ATOM      7  HN  UNL     1       6.905  -4.568   1.158  1.00  0.00     0.166 HD
ENDROOT
BRANCH   1   8
HETATM    8  N   UNL     1       5.403  -2.552   0.866  1.00  0.00    -0.313 N 
HETATM    9  C   UNL     1       4.704  -1.763  -0.027  1.00  0.00     0.223 C 
HETATM   10  O   UNL     1       5.217  -1.007  -0.846  1.00  0.00    -0.273 OA
HETATM   11  H   UNL     1       5.013  -3.454   1.104  1.00  0.00     0.170 HD
BRANCH   9  12
HETATM   12  C   UNL     1       3.194  -1.876   0.078  1.00  0.00     0.111 C 
BRANCH  12  13
HETATM   13  C   UNL     1       2.553  -0.665   0.800  1.00  0.00    -0.043 C 
HETATM   14  C   UNL     1       2.920   0.666   0.117  1.00  0.00     0.015 C 
HETATM   15  C   UNL     1       2.996  -0.620   2.271  1.00  0.00     0.015 C 
HETATM   16  C   UNL     1       1.022  -0.821   0.746  1.00  0.00     0.015 C 
ENDBRANCH  12  13
ENDBRANCH   9  12
ENDBRANCH   1   8
BRANCH   4  17
HETATM   17  N   UNL     1      10.940  -2.573   0.446  1.00  0.00    -0.376 N 
HETATM   18  C   UNL     1      11.626  -1.495  -0.299  1.00  0.00     0.149 C 
HETATM   19  C   UNL     1      12.279  -2.052  -1.577  1.00  0.00     0.187 C 
HETATM   20  O   UNL     1      13.152  -3.154  -1.290  1.00  0.00    -0.388 OA
HETATM   21  C   UNL     1      12.418  -4.218  -0.661  1.00  0.00     0.187 C 
HETATM   22  C   UNL     1      11.789  -3.757   0.664  1.00  0.00     0.149 C 
ENDBRANCH   4  17
TORSDOF 4
