REMARK  5 active torsions:
REMARK  status: ('A' for Active; 'I' for Inactive)
REMARK    1  A    between atoms: C_2  and  O_3 
REMARK    2  A    between atoms: O_3  and  C_4 
REMARK    3  A    between atoms: C_6  and  N_7 
REMARK       I    between atoms: N_7  and  C_8 
REMARK    4  A    between atoms: C_8  and  C_10 
REMARK    5  A    between atoms: C_10  and  C_11 
ROOT
HETATM    1  N   UNL     1       6.772  -2.163   3.580  1.00  0.00    -0.355 N 
HETATM    2  C   UNL     1       7.853  -3.038   3.500  1.00  0.00     0.222 C 
HETATM    3  O   UNL     1       8.446  -3.280   2.448  1.00  0.00    -0.273 OA
HETATM    4  H   UNL     1       6.262  -2.127   4.454  1.00  0.00     0.162 HD
ENDROOT
BRANCH   1   5
HETATM    5  C   UNL     1       6.178  -1.596   2.361  1.00  0.00     0.097 C 
HETATM    6  C   UNL     1       5.557  -0.187   2.454  1.00  0.00     0.059 C 
HETATM    7  C   UNL     1       4.548  -0.677   1.365  1.00  0.00     0.133 C 
HETATM    8  C   UNL     1       4.737  -2.106   2.005  1.00  0.00     0.006 C 
HETATM    9  C   UNL     1       4.772  -3.368   1.146  1.00  0.00     0.014 C 
HETATM   10  C   UNL     1       3.718  -2.423   3.107  1.00  0.00     0.014 C 
HETATM   11  C   UNL     1       4.422  -4.512   2.108  1.00  0.00     0.001 C 
HETATM   12  C   UNL     1       3.971  -3.884   3.425  1.00  0.00     0.001 C 
BRANCH   7  13
HETATM   13  O   UNL     1       3.205  -0.148   1.410  1.00  0.00    -0.385 OA
BRANCH  13  14
HETATM   14  C   UNL     1       3.065   1.261   1.263  1.00  0.00     0.163 C 
HETATM   15  C   UNL     1       1.586   1.593   1.244  1.00  0.00     0.033 C 
ENDBRANCH  13  14
ENDBRANCH   7  13
ENDBRANCH   1   5
BRANCH   2  16
HETATM   16  C   UNL     1       8.264  -3.661   4.824  1.00  0.00     0.144 C 
BRANCH  16  17
HETATM   17  C   UNL     1       8.147  -5.144   4.817  1.00  0.00    -0.015 A 
HETATM   18  C   UNL     1       8.828  -6.067   3.980  1.00  0.00     0.116 A 
HETATM   19  N   UNL     1       8.525  -7.335   4.259  1.00  0.00    -0.310 N 
HETATM   20  N   UNL     1       7.638  -7.239   5.263  1.00  0.00    -0.308 N 
ATOM     21  HN  UNL     1       8.883  -8.180   3.814  1.00  0.00     0.186 HD
HETATM   22  C   UNL     1       7.065  -8.430   5.842  1.00  0.00     0.177 C 
HETATM   23  C   UNL     1       7.383  -5.951   5.637  1.00  0.00     0.118 A 
ENDBRANCH  16  17
ENDBRANCH   2  16
TORSDOF 5
