REMARK  5 active torsions:
REMARK  status: ('A' for Active; 'I' for Inactive)
REMARK    1  A    between atoms: N_11  and  C_12 
REMARK    2  A    between atoms: C_12  and  C_13 
REMARK       I    between atoms: C_13  and  N_15 
REMARK    3  A    between atoms: N_15  and  C_16 
REMARK    4  A    between atoms: C_16  and  C_17 
REMARK    5  A    between atoms: C_17  and  C_18 
ROOT
HETATM    1  C   UNL     1       0.987  -0.009  -0.103  1.00  0.00     0.013 C 
HETATM    2  C   UNL     1       2.518  -0.096  -0.075  1.00  0.00     0.019 C 
HETATM    3  C   UNL     1       3.112   0.740  -1.223  1.00  0.00     0.007 C 
HETATM    4  C   UNL     1       4.639   0.713  -1.216  1.00  0.00     0.001 C 
HETATM    5  C   UNL     1       5.199  -0.706  -1.188  1.00  0.00     0.003 C 
HETATM    6  C   UNL     1       4.609  -1.532  -0.039  1.00  0.00     0.041 C 
HETATM    7  C   UNL     1       3.079  -1.541  -0.093  1.00  0.00     0.119 C 
HETATM    8  N   UNL     1       2.644  -2.320  -1.235  1.00  0.00    -0.324 N 
HETATM    9  C   UNL     1       1.980  -3.464  -0.873  1.00  0.00     0.326 C 
HETATM   10  O   UNL     1       1.643  -4.330  -1.663  1.00  0.00    -0.247 OA
HETATM   11  N   UNL     1       1.777  -3.435   0.472  1.00  0.00    -0.259 N 
HETATM   12  C   UNL     1       2.460  -2.398   1.038  1.00  0.00     0.257 C 
HETATM   13  O   UNL     1       2.539  -2.174   2.235  1.00  0.00    -0.270 OA
HETATM   14  H   UNL     1       2.936  -2.189  -2.197  1.00  0.00     0.165 HD
ENDROOT
BRANCH  11  15
HETATM   15  C   UNL     1       0.805  -4.268   1.134  1.00  0.00     0.239 C 
BRANCH  15  16
HETATM   16  C   UNL     1       1.344  -5.569   1.702  1.00  0.00     0.236 C 
HETATM   17  O   UNL     1       0.852  -6.652   1.378  1.00  0.00    -0.272 OA
HETATM   18  N   UNL     1       2.286  -5.462   2.710  1.00  0.00    -0.359 N 
HETATM   19  H   UNL     1       2.467  -4.548   3.112  1.00  0.00     0.162 HD
BRANCH  18  20
HETATM   20  C   UNL     1       2.601  -6.676   3.439  1.00  0.00     0.127 C 
BRANCH  20  21
HETATM   21  C   UNL     1       3.614  -6.518   4.570  1.00  0.00     0.059 C 
BRANCH  21  22
HETATM   22  C   UNL     1       3.909  -7.881   5.160  1.00  0.00    -0.041 A 
HETATM   23  C   UNL     1       4.925  -8.683   4.639  1.00  0.00     0.010 A 
HETATM   24  C   UNL     1       5.085  -9.987   5.108  1.00  0.00     0.018 A 
HETATM   25  C   UNL     1       4.219 -10.439   6.086  1.00  0.00     0.087 A 
HETATM   26  N   UNL     1       3.234  -9.690   6.625  1.00  0.00    -0.375 N 
HETATM   27  C   UNL     1       3.095  -8.432   6.148  1.00  0.00     0.094 A 
ATOM     28  HN  UNL     1       2.624 -10.055   7.357  1.00  0.00     0.164 HD
ENDBRANCH  21  22
ENDBRANCH  20  21
ENDBRANCH  18  20
ENDBRANCH  15  16
ENDBRANCH  11  15
TORSDOF 5
