REMARK  4 active torsions:
REMARK  status: ('A' for Active; 'I' for Inactive)
REMARK    1  A    between atoms: O_2  and  C_3 
REMARK    2  A    between atoms: C_6  and  N_7 
REMARK       I    between atoms: N_7  and  C_8 
REMARK       I    between atoms: C_8  and  N_10 
REMARK    3  A    between atoms: N_10  and  C_11 
REMARK    4  A    between atoms: C_11  and  C_12 
ROOT
HETATM    1  N   UNL     1       4.426  -4.135  -3.393  1.00  0.00    -0.308 N 
HETATM    2  C   UNL     1       4.087  -5.459  -3.223  1.00  0.00     0.320 C 
HETATM    3  O   UNL     1       3.498  -5.924  -2.256  1.00  0.00    -0.247 OA
HETATM    4  N   UNL     1       4.444  -6.245  -4.290  1.00  0.00    -0.340 N 
HETATM    5  H   UNL     1       4.655  -3.849  -4.334  1.00  0.00     0.170 HD
HETATM    6  H   UNL     1       5.141  -5.931  -4.951  1.00  0.00     0.164 HD
ENDROOT
BRANCH   1   7
HETATM    7  C   UNL     1       4.221  -3.118  -2.428  1.00  0.00     0.051 A 
HETATM    8  C   UNL     1       3.960  -3.382  -1.083  1.00  0.00     0.035 A 
HETATM    9  C   UNL     1       3.754  -2.333  -0.191  1.00  0.00     0.058 A 
HETATM   10  C   UNL     1       3.835  -1.038  -0.668  1.00  0.00     0.141 A 
HETATM   11  N   UNL     1       4.098  -0.730  -1.957  1.00  0.00    -0.345 N 
HETATM   12  C   UNL     1       4.286  -1.777  -2.801  1.00  0.00     0.119 A 
ATOM     13  HN  UNL     1       4.152   0.236  -2.279  1.00  0.00     0.167 HD
BRANCH  10  14
HETATM   14  O   UNL     1       3.633  -0.042   0.266  1.00  0.00    -0.341 OA
HETATM   15  C   UNL     1       3.824   1.263  -0.262  1.00  0.00     0.211 C 
ENDBRANCH  10  14
ENDBRANCH   1   7
BRANCH   4  16
HETATM   16  C   UNL     1       4.118  -7.666  -4.292  1.00  0.00     0.156 C 
BRANCH  16  17
HETATM   17  C   UNL     1       5.340  -8.583  -4.261  1.00  0.00     0.139 C 
HETATM   18  C   UNL     1       6.310  -8.386  -3.105  1.00  0.00     0.035 C 
HETATM   19  C   UNL     1       7.672  -8.683  -3.705  1.00  0.00     0.029 C 
HETATM   20  C   UNL     1       7.397  -8.998  -5.161  1.00  0.00     0.168 C 
HETATM   21  O   UNL     1       6.128  -8.406  -5.452  1.00  0.00    -0.384 OA
ENDBRANCH  16  17
ENDBRANCH   4  16
TORSDOF 4
