REMARK  4 active torsions:
REMARK  status: ('A' for Active; 'I' for Inactive)
REMARK    1  A    between atoms: C_8  and  C_9 
REMARK    2  A    between atoms: C_9  and  C_10 
REMARK    3  A    between atoms: C_10  and  N_11 
REMARK       I    between atoms: N_11  and  C_12 
REMARK       I    between atoms: C_12  and  N_14 
REMARK    4  A    between atoms: N_14  and  C_15 
ROOT
HETATM    1  N   UNL     1       0.230  -3.529  -0.473  1.00  0.00    -0.343 N 
HETATM    2  C   UNL     1      -1.144  -3.459  -0.579  1.00  0.00     0.316 C 
HETATM    3  O   UNL     1      -1.747  -2.447  -0.909  1.00  0.00    -0.247 OA
HETATM    4  N   UNL     1      -1.753  -4.635  -0.225  1.00  0.00    -0.336 N 
HETATM    5  H   UNL     1       0.540  -4.160   0.253  1.00  0.00     0.164 HD
HETATM    6  H   UNL     1      -1.262  -5.444  -0.578  1.00  0.00     0.164 HD
ENDROOT
BRANCH   1   7
HETATM    7  C   UNL     1       0.968  -2.284  -0.641  1.00  0.00     0.129 C 
BRANCH   7   8
HETATM    8  C   UNL     1       2.486  -2.426  -0.503  1.00  0.00     0.059 C 
BRANCH   8   9
HETATM    9  C   UNL     1       3.197  -1.123  -0.817  1.00  0.00    -0.048 A 
HETATM   10  C   UNL     1       3.510  -0.153   0.153  1.00  0.00    -0.040 A 
HETATM   11  C   UNL     1       3.198  -0.311   1.611  1.00  0.00     0.050 C 
HETATM   12  C   UNL     1       4.134   1.020  -0.281  1.00  0.00     0.094 A 
HETATM   13  N   UNL     1       4.456   1.292  -1.564  1.00  0.00    -0.375 N 
HETATM   14  C   UNL     1       4.138   0.352  -2.473  1.00  0.00     0.088 A 
ATOM     15  HN  UNL     1       4.915   2.163  -1.830  1.00  0.00     0.164 HD
HETATM   16  C   UNL     1       3.520  -0.847  -2.154  1.00  0.00     0.024 A 
ENDBRANCH   8   9
ENDBRANCH   7   8
ENDBRANCH   1   7
BRANCH   4  17
HETATM   17  C   UNL     1      -3.215  -4.705  -0.193  1.00  0.00     0.122 C 
HETATM   18  C   UNL     1      -3.823  -3.765   0.847  1.00  0.00     0.065 C 
HETATM   19  C   UNL     1      -5.100  -4.460   1.326  1.00  0.00     0.057 C 
HETATM   20  C   UNL     1      -5.143  -4.575   2.853  1.00  0.00     0.045 C 
HETATM   21  C   UNL     1      -6.363  -3.740   0.851  1.00  0.00     0.045 C 
HETATM   22  O   UNL     1      -5.099  -5.788   0.770  1.00  0.00    -0.369 OA
HETATM   23  C   UNL     1      -3.803  -6.072   0.204  1.00  0.00     0.075 C 
HETATM   24  C   UNL     1      -4.010  -6.980  -1.009  1.00  0.00     0.048 C 
HETATM   25  C   UNL     1      -2.978  -6.818   1.260  1.00  0.00     0.048 C 
ENDBRANCH   4  17
TORSDOF 4
