REMARK  3 active torsions:
REMARK  status: ('A' for Active; 'I' for Inactive)
REMARK    1  A    between atoms: C_5  and  N_8 
REMARK       I    between atoms: N_8  and  C_9 
REMARK    2  A    between atoms: C_9  and  C_11 
REMARK    3  A    between atoms: C_11  and  N_12 
ROOT
HETATM    1  N   UNL     1       7.308  -2.606  -3.427  1.00  0.00    -0.277 N 
HETATM    2  C   UNL     1       7.271  -3.809  -4.064  1.00  0.00     0.203 A 
HETATM    3  N   UNL     1       7.962  -4.692  -3.379  1.00  0.00    -0.327 N 
ATOM      4  HN  UNL     1       8.123  -5.676  -3.592  1.00  0.00     0.169 HD
HETATM    5  C   UNL     1       8.413  -3.965  -2.307  1.00  0.00     0.204 A 
HETATM    6  C   UNL     1       9.203  -4.542  -1.258  1.00  0.00     0.138 C 
HETATM    7  N   UNL     1       9.840  -5.007  -0.402  1.00  0.00    -0.188 NA
HETATM    8  N   UNL     1       8.050  -2.673  -2.302  1.00  0.00    -0.273 N 
ATOM      9  HN  UNL     1       8.274  -1.940  -1.629  1.00  0.00     0.189 HD
ENDROOT
BRANCH   1  10
HETATM   10  C   UNL     1       6.699  -1.363  -3.837  1.00  0.00     0.252 C 
BRANCH  10  11
HETATM   11  C   UNL     1       5.193  -1.480  -3.845  1.00  0.00     0.237 C 
HETATM   12  N   UNL     1       4.534  -0.620  -2.990  1.00  0.00    -0.355 N 
HETATM   13  H   UNL     1       5.067  -0.140  -2.274  1.00  0.00     0.162 HD
HETATM   14  O   UNL     1       4.610  -2.273  -4.581  1.00  0.00    -0.272 OA
BRANCH  12  15
HETATM   15  C   UNL     1       3.079  -0.643  -2.850  1.00  0.00     0.084 C 
HETATM   16  C   UNL     1       2.559   0.745  -2.461  1.00  0.00     0.025 C 
HETATM   17  C   UNL     1       2.867   1.108  -1.008  1.00  0.00     0.006 C 
HETATM   18  C   UNL     1       2.389   0.044  -0.012  1.00  0.00    -0.019 C 
HETATM   19  C   UNL     1       0.863   0.051   0.126  1.00  0.00     0.010 C 
HETATM   20  C   UNL     1       2.921  -1.343  -0.399  1.00  0.00     0.006 C 
HETATM   21  C   UNL     1       2.628  -1.719  -1.853  1.00  0.00     0.025 C 
ENDBRANCH  12  15
ENDBRANCH  10  11
ENDBRANCH   1  10
TORSDOF 3
