REMARK  5 active torsions:
REMARK  status: ('A' for Active; 'I' for Inactive)
REMARK    1  A    between atoms: N_4  and  S_9 
REMARK    2  A    between atoms: S_9  and  C_12 
REMARK    3  A    between atoms: C_12  and  C_13 
REMARK    4  A    between atoms: C_13  and  N_14 
REMARK       I    between atoms: N_14  and  C_15 
REMARK       I    between atoms: C_15  and  N_17 
REMARK    5  A    between atoms: N_17  and  C_18 
ROOT
HETATM    1  C   UNL     1       3.153   4.418  -4.138  1.00  0.00     0.140 C 
ENDROOT
BRANCH   1   2
HETATM    2  C   UNL     1       2.654   3.404  -3.124  1.00  0.00     0.177 C 
BRANCH   2   3
HETATM    3  S   UNL     1       3.390   1.813  -3.541  1.00  0.00     0.213 S 
HETATM    4  O   UNL     1       4.812   1.891  -3.292  1.00  0.00    -0.211 OA
HETATM    5  O   UNL     1       2.880   1.396  -4.830  1.00  0.00    -0.211 OA
BRANCH   3   6
HETATM    6  N   UNL     1       2.750   0.718  -2.390  1.00  0.00    -0.206 NA
HETATM    7  C   UNL     1       3.006   1.071  -0.957  1.00  0.00     0.138 C 
HETATM    8  C   UNL     1       2.417   0.008  -0.011  1.00  0.00     0.132 C 
HETATM    9  C   UNL     1       0.889   0.004   0.019  1.00  0.00     0.041 C 
HETATM   10  O   UNL     1       2.937  -1.296  -0.300  1.00  0.00    -0.379 OA
HETATM   11  C   UNL     1       2.712  -1.700  -1.660  1.00  0.00     0.132 C 
HETATM   12  C   UNL     1       3.286  -0.678  -2.654  1.00  0.00     0.138 C 
HETATM   13  C   UNL     1       3.384  -3.057  -1.837  1.00  0.00     0.041 C 
ENDBRANCH   3   6
ENDBRANCH   2   3
ENDBRANCH   1   2
BRANCH   1  14
HETATM   14  N   UNL     1       2.735   5.796  -3.897  1.00  0.00    -0.342 N 
HETATM   15  C   UNL     1       3.249   6.738  -4.777  1.00  0.00     0.320 C 
HETATM   16  O   UNL     1       4.049   6.430  -5.652  1.00  0.00    -0.247 OA
HETATM   17  N   UNL     1       2.778   8.006  -4.524  1.00  0.00    -0.308 N 
HETATM   18  H   UNL     1       2.431   8.169  -3.590  1.00  0.00     0.170 HD
HETATM   19  H   UNL     1       1.771   5.958  -3.641  1.00  0.00     0.164 HD
BRANCH  17  20
HETATM   20  C   UNL     1       3.096   9.145  -5.308  1.00  0.00     0.051 A 
HETATM   21  C   UNL     1       3.563   9.072  -6.619  1.00  0.00     0.032 A 
HETATM   22  C   UNL     1       3.900  10.235  -7.311  1.00  0.00     0.019 A 
HETATM   23  C   UNL     1       3.742  11.450  -6.669  1.00  0.00     0.088 A 
HETATM   24  N   UNL     1       3.258  11.574  -5.415  1.00  0.00    -0.373 N 
HETATM   25  C   UNL     1       2.943  10.422  -4.769  1.00  0.00     0.117 A 
ATOM     26  HN  UNL     1       3.135  12.486  -4.975  1.00  0.00     0.164 HD
ENDBRANCH  17  20
ENDBRANCH   1  14
TORSDOF 5
