REMARK  4 active torsions:
REMARK  status: ('A' for Active; 'I' for Inactive)
REMARK    1  A    between atoms: N_1  and  C_8 
REMARK    2  A    between atoms: N_2  and  C_7 
REMARK    3  A    between atoms: C_8  and  C_9 
REMARK       I    between atoms: C_9  and  N_12 
REMARK    4  A    between atoms: N_12  and  C_16 
ROOT
HETATM    1  N   UNL     1      -0.545   1.152   0.795  1.00  0.00    -0.255 N 
HETATM    2  N   UNL     1      -0.351  -1.172   1.181  1.00  0.00    -0.279 N 
HETATM    3  C   UNL     1      -1.130  -0.017   1.268  1.00  0.00     0.334 C 
HETATM    4  C   UNL     1       0.791   1.269   0.436  1.00  0.00     0.292 C 
HETATM    5  C   UNL     1       1.582   0.027   0.537  1.00  0.00     0.200 C 
HETATM    6  C   UNL     1       0.987  -1.123   0.848  1.00  0.00     0.146 C 
HETATM    7  O   UNL     1      -2.278  -0.030   1.710  1.00  0.00    -0.246 OA
HETATM    8  O   UNL     1       1.298   2.306   0.019  1.00  0.00    -0.264 OA
HETATM    9  F   UNL     1       2.887   0.093   0.209  1.00  0.00    -0.199 F 
ENDROOT
BRANCH   1  10
HETATM   10  C   UNL     1      -1.439   2.231   0.390  1.00  0.00     0.240 C 
BRANCH  10  11
HETATM   11  C   UNL     1      -1.588   3.474   1.267  1.00  0.00     0.240 C 
HETATM   12  N   UNL     1      -1.524   3.268   2.634  1.00  0.00    -0.326 N 
HETATM   13  H   UNL     1      -1.307   2.331   2.951  1.00  0.00     0.169 HD
HETATM   14  O   UNL     1      -1.920   4.529   0.724  1.00  0.00    -0.271 OA
BRANCH  12  15
HETATM   15  C   UNL     1      -1.831   4.219   3.642  1.00  0.00     0.034 A 
HETATM   16  C   UNL     1      -2.235   5.532   3.386  1.00  0.00     0.029 A 
HETATM   17  C   UNL     1      -2.579   6.401   4.426  1.00  0.00     0.002 A 
HETATM   18  C   UNL     1      -2.507   5.972   5.746  1.00  0.00     0.000 A 
HETATM   19  C   UNL     1      -2.082   4.676   6.023  1.00  0.00     0.002 A 
HETATM   20  C   UNL     1      -1.746   3.804   4.978  1.00  0.00     0.029 A 
ENDBRANCH  12  15
ENDBRANCH  10  11
ENDBRANCH   1  10
BRANCH   2  21
HETATM   21  C   UNL     1      -1.048  -2.431   1.415  1.00  0.00     0.232 C 
HETATM   22  O   UNL     1      -0.168  -3.568   1.420  1.00  0.00    -0.366 OA
HETATM   23  C   UNL     1      -0.971  -4.723   1.105  1.00  0.00     0.170 C 
HETATM   24  C   UNL     1      -2.306  -4.230   0.575  1.00  0.00     0.031 C 
HETATM   25  C   UNL     1      -2.058  -2.765   0.324  1.00  0.00     0.056 C 
ENDBRANCH   2  21
TORSDOF 4
