REMARK  4 active torsions:
REMARK  status: ('A' for Active; 'I' for Inactive)
REMARK       I    between atoms: C_2  and  N_4 
REMARK    1  A    between atoms: C_8  and  C_10 
REMARK       I    between atoms: C_10  and  N_12 
REMARK    2  A    between atoms: N_12  and  C_13 
REMARK    3  A    between atoms: N_17  and  C_18 
REMARK    4  A    between atoms: C_18  and  C_19 
REMARK       I    between atoms: C_19  and  N_21 
ROOT
HETATM    1  C   UNL     1       3.573  -1.357  -4.714  1.00  0.00     0.228 C 
HETATM    2  O   UNL     1       4.283  -2.281  -4.328  1.00  0.00    -0.273 OA
HETATM    3  N   UNL     1       3.154  -1.184  -6.017  1.00  0.00    -0.324 N 
HETATM    4  H   UNL     1       2.577  -0.390  -6.267  1.00  0.00     0.169 HD
ENDROOT
BRANCH   3   5
HETATM    5  C   UNL     1       3.502  -2.052  -7.034  1.00  0.00     0.069 A 
HETATM    6  C   UNL     1       4.246  -3.252  -7.024  1.00  0.00     0.138 A 
HETATM    7  N   UNL     1       4.373  -3.782  -8.243  1.00  0.00    -0.307 N 
HETATM    8  N   UNL     1       3.711  -2.917  -9.044  1.00  0.00    -0.293 N 
ATOM      9  HN  UNL     1       4.857  -4.640  -8.508  1.00  0.00     0.186 HD
HETATM   10  C   UNL     1       3.141  -1.884  -8.349  1.00  0.00     0.141 A 
BRANCH   8  11
HETATM   11  C   UNL     1       3.641  -3.220 -10.460  1.00  0.00     0.250 C 
BRANCH  11  12
HETATM   12  C   UNL     1       3.620  -1.996 -11.344  1.00  0.00     0.235 C 
HETATM   13  O   UNL     1       2.716  -1.165 -11.343  1.00  0.00    -0.272 OA
HETATM   14  N   UNL     1       4.672  -1.852 -12.204  1.00  0.00    -0.369 N 
HETATM   15  H   UNL     1       5.488  -2.452 -12.201  1.00  0.00     0.159 HD
HETATM   16  H   UNL     1       4.687  -1.027 -12.790  1.00  0.00     0.159 HD
ENDBRANCH  11  12
ENDBRANCH   8  11
ENDBRANCH   3   5
BRANCH   1  17
HETATM   17  C   UNL     1       3.053  -0.300  -3.748  1.00  0.00     0.096 C 
HETATM   18  C   UNL     1       3.559   1.112  -4.078  1.00  0.00     0.017 C 
HETATM   19  C   UNL     1       3.187   2.112  -2.978  1.00  0.00     0.021 C 
HETATM   20  C   UNL     1       3.610   1.629  -1.592  1.00  0.00     0.126 C 
HETATM   21  N   UNL     1       3.094   0.286  -1.348  1.00  0.00    -0.352 N 
HETATM   22  C   UNL     1       2.565  -0.031  -0.106  1.00  0.00     0.215 C 
HETATM   23  C   UNL     1       3.485  -0.709  -2.338  1.00  0.00     0.139 C 
HETATM   24  C   UNL     1       1.919  -1.389   0.032  1.00  0.00     0.117 C 
HETATM   25  O   UNL     1       2.548   0.762   0.835  1.00  0.00    -0.274 OA
ENDBRANCH   1  17
TORSDOF 4
