REMARK  5 active torsions:
REMARK  status: ('A' for Active; 'I' for Inactive)
REMARK    1  A    between atoms: O_2  and  C_3 
REMARK    2  A    between atoms: C_6  and  N_7 
REMARK       I    between atoms: N_7  and  C_8 
REMARK       I    between atoms: C_8  and  N_10 
REMARK    3  A    between atoms: N_10  and  C_11 
REMARK    4  A    between atoms: N_14  and  C_15 
REMARK    5  A    between atoms: C_15  and  C_16 
REMARK       I    between atoms: C_16  and  N_18 
ROOT
HETATM    1  N   UNL     1       6.252  -5.390   0.100  1.00  0.00    -0.308 N 
HETATM    2  C   UNL     1       5.666  -6.613   0.360  1.00  0.00     0.321 C 
HETATM    3  O   UNL     1       5.172  -7.347  -0.490  1.00  0.00    -0.247 OA
HETATM    4  N   UNL     1       5.645  -6.942   1.707  1.00  0.00    -0.338 N 
HETATM    5  H   UNL     1       6.967  -5.082   0.743  1.00  0.00     0.170 HD
HETATM    6  H   UNL     1       5.670  -6.141   2.323  1.00  0.00     0.164 HD
ENDROOT
BRANCH   4   7
HETATM    7  C   UNL     1       4.737  -8.038   2.093  1.00  0.00     0.089 C 
HETATM    8  C   UNL     1       4.314  -7.982   3.565  1.00  0.00     0.055 C 
HETATM    9  C   UNL     1       5.100  -8.921   4.471  1.00  0.00     0.275 C 
HETATM   10  N   UNL     1       5.144 -10.310   3.993  1.00  0.00     0.097 N 
HETATM   11  C   UNL     1       5.833 -10.330   2.697  1.00  0.00     0.275 C 
HETATM   12  C   UNL     1       5.224  -9.427   1.622  1.00  0.00     0.055 C 
BRANCH  10  13
HETATM   13  C   UNL     1       3.812 -10.956   3.904  1.00  0.00     0.374 C 
BRANCH  13  14
HETATM   14  C   UNL     1       3.126 -11.007   5.272  1.00  0.00     0.243 C 
HETATM   15  O   UNL     1       2.071 -10.438   5.528  1.00  0.00    -0.272 OA
HETATM   16  N   UNL     1       3.778 -11.752   6.216  1.00  0.00    -0.369 N 
HETATM   17  H   UNL     1       4.762 -11.936   6.083  1.00  0.00     0.159 HD
HETATM   18  H   UNL     1       3.417 -11.707   7.159  1.00  0.00     0.159 HD
ENDBRANCH  13  14
ENDBRANCH  10  13
ENDBRANCH   4   7
BRANCH   1  19
HETATM   19  C   UNL     1       6.163  -4.743  -1.163  1.00  0.00     0.051 A 
HETATM   20  C   UNL     1       5.147  -5.024  -2.078  1.00  0.00     0.035 A 
HETATM   21  C   UNL     1       5.106  -4.377  -3.309  1.00  0.00     0.058 A 
HETATM   22  C   UNL     1       6.079  -3.437  -3.592  1.00  0.00     0.141 A 
HETATM   23  N   UNL     1       7.071  -3.109  -2.736  1.00  0.00    -0.345 N 
HETATM   24  C   UNL     1       7.084  -3.767  -1.543  1.00  0.00     0.119 A 
ATOM     25  HN  UNL     1       7.773  -2.407  -2.970  1.00  0.00     0.167 HD
BRANCH  22  26
HETATM   26  O   UNL     1       5.955  -2.813  -4.817  1.00  0.00    -0.341 OA
HETATM   27  C   UNL     1       6.968  -1.855  -5.083  1.00  0.00     0.211 C 
ENDBRANCH  22  26
ENDBRANCH   1  19
TORSDOF 5
