REMARK  5 active torsions:
REMARK  status: ('A' for Active; 'I' for Inactive)
REMARK    1  A    between atoms: C_2  and  C_5 
REMARK    2  A    between atoms: N_8  and  C_9 
REMARK    3  A    between atoms: C_9  and  C_10 
REMARK       I    between atoms: C_10  and  N_12 
REMARK    4  A    between atoms: N_12  and  C_13 
REMARK    5  A    between atoms: C_13  and  C_14 
ROOT
HETATM    1  C   UNL     1       2.743  -4.759   0.881  1.00  0.00     0.250 C 
ENDROOT
BRANCH   1   2
HETATM    2  N   UNL     1       4.131  -4.658   0.480  1.00  0.00    -0.294 N 
HETATM    3  C   UNL     1       4.794  -3.526   0.107  1.00  0.00     0.113 A 
HETATM    4  C   UNL     1       6.107  -3.892  -0.059  1.00  0.00     0.054 A 
HETATM    5  C   UNL     1       6.157  -5.281   0.241  1.00  0.00     0.133 A 
HETATM    6  N   UNL     1       4.928  -5.742   0.571  1.00  0.00    -0.294 N 
ATOM      7  HN  UNL     1       4.665  -6.693   0.830  1.00  0.00     0.187 HD
BRANCH   5   8
HETATM    8  C   UNL     1       7.382  -6.157   0.223  1.00  0.00     0.433 C 
HETATM    9  F   UNL     1       8.492  -5.472  -0.171  1.00  0.00    -0.165 F 
HETATM   10  F   UNL     1       7.258  -7.210  -0.628  1.00  0.00    -0.165 F 
HETATM   11  F   UNL     1       7.668  -6.670   1.450  1.00  0.00    -0.165 F 
ENDBRANCH   5   8
ENDBRANCH   1   2
BRANCH   1  12
HETATM   12  C   UNL     1       1.850  -5.094  -0.286  1.00  0.00     0.237 C 
HETATM   13  O   UNL     1       1.329  -4.222  -0.978  1.00  0.00    -0.272 OA
HETATM   14  N   UNL     1       1.645  -6.443  -0.503  1.00  0.00    -0.359 N 
HETATM   15  H   UNL     1       2.219  -7.111   0.003  1.00  0.00     0.162 HD
BRANCH  14  16
HETATM   16  C   UNL     1       0.762  -6.934  -1.545  1.00  0.00     0.129 C 
BRANCH  16  17
HETATM   17  C   UNL     1       1.431  -7.198  -2.890  1.00  0.00     0.029 C 
HETATM   18  C   UNL     1       2.517  -8.257  -2.882  1.00  0.00     0.034 C 
HETATM   19  C   UNL     1       3.359  -7.909  -4.098  1.00  0.00     0.168 C 
HETATM   20  O   UNL     1       2.971  -6.602  -4.543  1.00  0.00    -0.391 OA
HETATM   21  C   UNL     1       2.144  -6.021  -3.524  1.00  0.00     0.173 C 
ENDBRANCH  16  17
ENDBRANCH  14  16
ENDBRANCH   1  12
TORSDOF 5
