REMARK  4 active torsions:
REMARK  status: ('A' for Active; 'I' for Inactive)
REMARK    1  A    between atoms: N_1  and  C_2 
REMARK    2  A    between atoms: N_6  and  C_7 
REMARK    3  A    between atoms: C_7  and  C_8 
REMARK       I    between atoms: C_8  and  N_10 
REMARK    4  A    between atoms: N_10  and  C_11 
ROOT
HETATM    1  C   UNL     1       5.520  -1.682  -0.122  1.00  0.00     0.250 C 
ENDROOT
BRANCH   1   2
HETATM    2  N   UNL     1       6.480  -1.322   0.899  1.00  0.00    -0.293 N 
HETATM    3  N   UNL     1       7.708  -1.891   0.900  1.00  0.00    -0.307 N 
HETATM    4  C   UNL     1       8.339  -1.254   1.894  1.00  0.00     0.137 A 
ATOM      5  HN  UNL     1       8.066  -2.627   0.291  1.00  0.00     0.186 HD
HETATM    6  C   UNL     1       7.523  -0.286   2.506  1.00  0.00     0.060 A 
HETATM    7  C   UNL     1       6.331  -0.342   1.841  1.00  0.00     0.141 A 
BRANCH   6   8
HETATM    8  N   UNL     1       7.813   0.546   3.517  1.00  0.00    -0.397 N 
HETATM    9  H   UNL     1       8.685   0.494   4.033  1.00  0.00     0.156 HD
HETATM   10  H   UNL     1       7.117   1.153   3.937  1.00  0.00     0.156 HD
ENDBRANCH   6   8
ENDBRANCH   1   2
BRANCH   1  11
HETATM   11  C   UNL     1       4.988  -3.084   0.059  1.00  0.00     0.237 C 
HETATM   12  O   UNL     1       3.803  -3.275   0.338  1.00  0.00    -0.272 OA
HETATM   13  N   UNL     1       5.880  -4.112  -0.190  1.00  0.00    -0.355 N 
HETATM   14  H   UNL     1       6.869  -3.888  -0.075  1.00  0.00     0.162 HD
BRANCH  13  15
HETATM   15  C   UNL     1       5.440  -5.477  -0.021  1.00  0.00     0.084 C 
HETATM   16  C   UNL     1       5.573  -5.993   1.411  1.00  0.00     0.025 C 
HETATM   17  C   UNL     1       5.572  -7.520   1.278  1.00  0.00     0.002 C 
HETATM   18  C   UNL     1       5.660  -7.812  -0.221  1.00  0.00     0.002 C 
HETATM   19  C   UNL     1       6.201  -6.521  -0.827  1.00  0.00     0.025 C 
ENDBRANCH  13  15
ENDBRANCH   1  11
TORSDOF 4
