REMARK  6 active torsions:
REMARK  status: ('A' for Active; 'I' for Inactive)
REMARK    1  A    between atoms: S_2  and  C_3 
REMARK    2  A    between atoms: C_6  and  N_7 
REMARK       I    between atoms: N_7  and  C_8 
REMARK    3  A    between atoms: C_8  and  C_10 
REMARK    4  A    between atoms: C_10  and  O_12 
REMARK    5  A    between atoms: O_12  and  C_13 
REMARK    6  A    between atoms: C_13  and  C_14 
ROOT
HETATM    1  N   UNL     1       3.900   2.096  -5.460  1.00  0.00    -0.324 N 
HETATM    2  C   UNL     1       4.065   1.345  -6.612  1.00  0.00     0.250 C 
HETATM    3  O   UNL     1       4.055   0.118  -6.679  1.00  0.00    -0.270 OA
HETATM    4  H   UNL     1       3.812   3.100  -5.581  1.00  0.00     0.169 HD
ENDROOT
BRANCH   1   5
HETATM    5  C   UNL     1       3.830   1.594  -4.145  1.00  0.00     0.050 A 
HETATM    6  C   UNL     1       4.217   0.305  -3.795  1.00  0.00     0.034 A 
HETATM    7  C   UNL     1       4.145  -0.105  -2.464  1.00  0.00     0.039 A 
HETATM    8  C   UNL     1       3.679   0.786  -1.507  1.00  0.00     0.069 A 
HETATM    9  N   UNL     1       3.301   2.046  -1.813  1.00  0.00    -0.358 N 
HETATM   10  C   UNL     1       3.391   2.421  -3.114  1.00  0.00     0.118 A 
ATOM     11  HN  UNL     1       2.962   2.688  -1.097  1.00  0.00     0.166 HD
BRANCH   8  12
HETATM   12  S   UNL     1       3.592   0.241   0.189  1.00  0.00    -0.117 SA
HETATM   13  C   UNL     1       2.933   1.731   0.975  1.00  0.00     0.097 C 
ENDBRANCH   8  12
ENDBRANCH   1   5
BRANCH   2  14
HETATM   14  C   UNL     1       4.291   2.192  -7.875  1.00  0.00     0.209 C 
HETATM   15  C   UNL     1       3.041   2.999  -8.206  1.00  0.00     0.050 C 
BRANCH  14  16
HETATM   16  O   UNL     1       5.390   3.093  -7.719  1.00  0.00    -0.376 OA
BRANCH  16  17
HETATM   17  C   UNL     1       6.638   2.391  -7.654  1.00  0.00     0.173 C 
BRANCH  17  18
HETATM   18  C   UNL     1       7.746   3.391  -7.616  1.00  0.00     0.009 A 
HETATM   19  C   UNL     1       9.162   2.936  -7.364  1.00  0.00     0.007 A 
HETATM   20  C   UNL     1       8.435   3.736  -6.320  1.00  0.00     0.007 A 
ENDBRANCH  17  18
ENDBRANCH  16  17
ENDBRANCH  14  16
ENDBRANCH   2  14
TORSDOF 6
