REMARK  5 active torsions:
REMARK  status: ('A' for Active; 'I' for Inactive)
REMARK    1  A    between atoms: C_2  and  C_3 
REMARK    2  A    between atoms: C_2  and  N_17 
REMARK    3  A    between atoms: C_3  and  C_4 
REMARK    4  A    between atoms: C_4  and  N_5 
REMARK       I    between atoms: N_5  and  C_6 
REMARK       I    between atoms: C_6  and  N_8 
REMARK    5  A    between atoms: N_8  and  C_9 
ROOT
HETATM    1  N   UNL     1       3.144  -3.799  -0.550  1.00  0.00    -0.342 N 
HETATM    2  C   UNL     1       4.403  -4.236  -0.268  1.00  0.00     0.334 C 
HETATM    3  O   UNL     1       5.160  -3.668   0.515  1.00  0.00    -0.247 OA
HETATM    4  N   UNL     1       4.820  -5.380  -0.897  1.00  0.00    -0.140 N 
HETATM    5  H   UNL     1       2.626  -4.337  -1.238  1.00  0.00     0.164 HD
HETATM    6  H   UNL     1       5.752  -5.670  -0.646  1.00  0.00     0.189 HD
ENDROOT
BRANCH   1   7
HETATM    7  C   UNL     1       2.535  -2.616   0.021  1.00  0.00     0.126 C 
BRANCH   7   8
HETATM    8  C   UNL     1       2.919  -1.343  -0.737  1.00  0.00     0.055 C 
BRANCH   8   9
HETATM    9  C   UNL     1       2.439  -0.035  -0.039  1.00  0.00     0.220 C 
HETATM   10  C   UNL     1       0.896  -0.027  -0.003  1.00  0.00     0.043 C 
BRANCH   9  11
HETATM   11  N   UNL     1       2.978   1.178  -0.722  1.00  0.00     0.092 N 
HETATM   12  C   UNL     1       4.455   1.237  -0.755  1.00  0.00     0.273 C 
HETATM   13  C   UNL     1       5.081   1.480   0.620  1.00  0.00     0.030 C 
HETATM   14  C   UNL     1       4.578   2.796   1.201  1.00  0.00     0.003 C 
HETATM   15  C   UNL     1       3.053   2.864   1.171  1.00  0.00     0.030 C 
HETATM   16  C   UNL     1       2.485   2.469  -0.198  1.00  0.00     0.273 C 
ENDBRANCH   9  11
ENDBRANCH   8   9
ENDBRANCH   7   8
ENDBRANCH   1   7
BRANCH   4  17
HETATM   17  C   UNL     1       4.082  -6.093  -1.815  1.00  0.00     0.703 A 
HETATM   18  N   UNL     1       2.870  -5.812  -2.248  1.00  0.00    -0.185 N 
HETATM   19  C   UNL     1       2.609  -6.802  -3.147  1.00  0.00     0.215 A 
ATOM     20  HN  UNL     1       2.268  -5.035  -1.974  1.00  0.00     0.185 HD
HETATM   21  N   UNL     1       3.580  -7.701  -3.300  1.00  0.00    -0.280 N 
HETATM   22  N   UNL     1       4.513  -7.236  -2.443  1.00  0.00    -0.127 N 
ATOM     23  HN  UNL     1       3.610  -8.522  -3.904  1.00  0.00     0.188 HD
HETATM   24  C   UNL     1       5.760  -7.937  -2.294  1.00  0.00     0.197 C 
ENDBRANCH   4  17
TORSDOF 5
