REMARK  7 active torsions:
REMARK  status: ('A' for Active; 'I' for Inactive)
REMARK    1  A    between atoms: C_2  and  N_3 
REMARK    2  A    between atoms: N_3  and  C_4 
REMARK    3  A    between atoms: N_3  and  C_6 
REMARK    4  A    between atoms: C_6  and  C_8 
REMARK    5  A    between atoms: C_8  and  N_9 
REMARK       I    between atoms: N_9  and  C_10 
REMARK    6  A    between atoms: C_10  and  C_12 
REMARK    7  A    between atoms: C_18  and  N_19 
ROOT
HETATM    1  C   UNL     1       8.552   3.953  -1.719  1.00  0.00     0.070 A 
HETATM    2  C   UNL     1       9.044   5.186  -2.197  1.00  0.00     0.022 A 
HETATM    3  C   UNL     1      10.361   5.560  -1.968  1.00  0.00     0.018 A 
HETATM    4  C   UNL     1      11.143   4.689  -1.252  1.00  0.00     0.089 A 
HETATM    5  N   UNL     1      10.717   3.483  -0.827  1.00  0.00    -0.356 N 
ATOM      6  HN  UNL     1      11.351   2.876  -0.307  1.00  0.00     0.166 HD
HETATM    7  C   UNL     1       9.441   3.068  -1.088  1.00  0.00     0.098 A 
ENDROOT
BRANCH   1   8
HETATM    8  C   UNL     1       7.107   3.723  -1.987  1.00  0.00     0.254 C 
HETATM    9  N   UNL     1       6.320   3.174  -0.981  1.00  0.00    -0.355 N 
HETATM   10  H   UNL     1       6.820   2.772  -0.194  1.00  0.00     0.162 HD
HETATM   11  O   UNL     1       6.660   4.039  -3.087  1.00  0.00    -0.268 OA
BRANCH   9  12
HETATM   12  C   UNL     1       4.973   2.695  -1.315  1.00  0.00     0.158 C 
BRANCH  12  13
HETATM   13  C   UNL     1       3.972   2.580  -0.121  1.00  0.00     0.236 C 
HETATM   14  C   UNL     1       4.554   1.565   0.885  1.00  0.00     0.044 C 
BRANCH  13  15
HETATM   15  N   UNL     1       2.577   2.180  -0.524  1.00  0.00     0.093 N 
BRANCH  15  16
HETATM   16  C   UNL     1       1.655   2.133   0.636  1.00  0.00     0.268 C 
HETATM   17  C   UNL     1       0.206   1.740   0.337  1.00  0.00     0.037 C 
ENDBRANCH  15  16
BRANCH  15  18
HETATM   18  C   UNL     1       2.023   2.975  -1.639  1.00  0.00     0.268 C 
HETATM   19  C   UNL     1       1.905   4.478  -1.398  1.00  0.00     0.037 C 
ENDBRANCH  15  18
ENDBRANCH  13  15
ENDBRANCH  12  13
ENDBRANCH   9  12
ENDBRANCH   1   8
BRANCH   7  20
HETATM   20  N   UNL     1       9.121   1.760  -0.661  1.00  0.00    -0.265 NA
HETATM   21  C   UNL     1       8.442   0.890  -1.654  1.00  0.00     0.123 C 
HETATM   22  C   UNL     1       8.046  -0.425  -0.961  1.00  0.00     0.182 C 
HETATM   23  O   UNL     1       9.204  -1.125  -0.484  1.00  0.00    -0.389 OA
HETATM   24  C   UNL     1       9.918  -0.315   0.463  1.00  0.00     0.182 C 
HETATM   25  C   UNL     1      10.324   1.041  -0.132  1.00  0.00     0.123 C 
ENDBRANCH   7  20
TORSDOF 7
