REMARK  5 active torsions:
REMARK  status: ('A' for Active; 'I' for Inactive)
REMARK    1  A    between atoms: C_2  and  C_4 
REMARK    2  A    between atoms: C_7  and  C_8 
REMARK    3  A    between atoms: C_8  and  C_9 
REMARK       I    between atoms: C_9  and  N_11 
REMARK    4  A    between atoms: N_11  and  C_12 
REMARK    5  A    between atoms: C_12  and  C_14 
ROOT
HETATM    1  C   UNL     1       4.074  -4.080   4.410  1.00  0.00     0.223 C 
HETATM    2  O   UNL     1       3.189  -4.735   3.861  1.00  0.00    -0.273 OA
HETATM    3  N   UNL     1       4.907  -4.605   5.372  1.00  0.00    -0.354 N 
HETATM    4  H   UNL     1       5.451  -3.951   5.938  1.00  0.00     0.162 HD
ENDROOT
BRANCH   1   5
HETATM    5  C   UNL     1       4.383  -2.658   3.993  1.00  0.00     0.160 C 
BRANCH   5   6
HETATM    6  C   UNL     1       4.162  -1.661   5.083  1.00  0.00     0.025 A 
HETATM    7  N   UNL     1       4.989  -1.668   6.200  1.00  0.00    -0.356 N 
HETATM    8  C   UNL     1       4.649  -0.693   7.021  1.00  0.00     0.054 A 
ATOM      9  HN  UNL     1       5.748  -2.330   6.361  1.00  0.00     0.166 HD
HETATM   10  S   UNL     1       3.350   0.300   6.486  1.00  0.00    -0.086 SA
HETATM   11  C   UNL     1       3.215  -0.654   5.074  1.00  0.00     0.077 A 
BRANCH   8  12
HETATM   12  C   UNL     1       5.283  -0.427   8.366  1.00  0.00     0.035 C 
HETATM   13  C   UNL     1       5.092  -1.629   9.284  1.00  0.00     0.016 C 
HETATM   14  C   UNL     1       6.769  -0.100   8.232  1.00  0.00     0.016 C 
ENDBRANCH   8  12
ENDBRANCH   5   6
ENDBRANCH   1   5
BRANCH   3  15
HETATM   15  C   UNL     1       4.801  -5.984   5.841  1.00  0.00     0.109 C 
HETATM   16  C   UNL     1       6.131  -6.699   5.599  1.00  0.00     0.035 C 
BRANCH  15  17
HETATM   17  C   UNL     1       4.383  -6.070   7.320  1.00  0.00     0.143 C 
HETATM   18  C   UNL     1       3.038  -5.435   7.649  1.00  0.00     0.036 C 
HETATM   19  C   UNL     1       3.214  -4.880   9.047  1.00  0.00     0.029 C 
HETATM   20  C   UNL     1       4.638  -5.226   9.427  1.00  0.00     0.168 C 
HETATM   21  O   UNL     1       5.331  -5.424   8.190  1.00  0.00    -0.384 OA
ENDBRANCH  15  17
ENDBRANCH   3  15
TORSDOF 5
