REMARK  2 active torsions:
REMARK  status: ('A' for Active; 'I' for Inactive)
REMARK       I    between atoms: N_2  and  C_3 
REMARK    1  A    between atoms: C_3  and  C_5 
REMARK    2  A    between atoms: N_7  and  C_11 
ROOT
HETATM    1  C   UNL     1       4.426   0.943  -1.127  1.00  0.00     0.231 C 
HETATM    2  C   UNL     1       5.044   2.344  -1.228  1.00  0.00     0.183 C 
HETATM    3  N   UNL     1       4.897   2.920  -2.567  1.00  0.00    -0.213 N 
HETATM    4  C   UNL     1       5.195   2.035  -3.684  1.00  0.00     0.167 C 
HETATM    5  C   UNL     1       4.547   0.658  -3.485  1.00  0.00     0.189 C 
HETATM    6  O   UNL     1       4.849   0.082  -2.200  1.00  0.00    -0.373 OA
ENDROOT
BRANCH   3   7
HETATM    7  C   UNL     1       4.042   3.992  -2.716  1.00  0.00     0.680 A 
HETATM    8  N   UNL     1       3.889   4.823  -1.673  1.00  0.00    -0.201 N 
HETATM    9  C   UNL     1       3.073   5.884  -1.816  1.00  0.00     0.114 A 
ATOM     10  HN  UNL     1       4.379   4.655  -0.794  1.00  0.00     0.183 HD
HETATM   11  C   UNL     1       2.405   6.175  -2.980  1.00  0.00    -0.030 A 
HETATM   12  C   UNL     1       1.496   7.345  -3.118  1.00  0.00     0.051 C 
HETATM   13  C   UNL     1       2.630   5.279  -3.998  1.00  0.00     0.114 A 
HETATM   14  N   UNL     1       3.440   4.203  -3.898  1.00  0.00    -0.201 N 
ATOM     15  HN  UNL     1       3.589   3.576  -4.688  1.00  0.00     0.183 HD
ENDBRANCH   3   7
BRANCH   1  16
HETATM   16  C   UNL     1       2.895   0.960  -0.932  1.00  0.00     0.247 C 
HETATM   17  N   UNL     1       2.338  -0.309  -0.941  1.00  0.00    -0.363 N 
HETATM   18  C   UNL     1       0.911  -0.479  -0.862  1.00  0.00     0.149 C 
HETATM   19  H   UNL     1       2.918  -1.066  -1.289  1.00  0.00     0.162 HD
HETATM   20  O   UNL     1       2.227   1.969  -0.732  1.00  0.00    -0.271 OA
ENDBRANCH   1  16
TORSDOF 2
