REMARK  5 active torsions:
REMARK  status: ('A' for Active; 'I' for Inactive)
REMARK    1  A    between atoms: C_2  and  C_3 
REMARK    2  A    between atoms: C_3  and  C_4 
REMARK    3  A    between atoms: C_6  and  N_7 
REMARK       I    between atoms: N_7  and  C_8 
REMARK       I    between atoms: C_8  and  N_10 
REMARK    4  A    between atoms: N_10  and  C_11 
REMARK    5  A    between atoms: C_21  and  O_22 
ROOT
HETATM    1  N   UNL     1       5.594   0.984  -1.676  1.00  0.00    -0.337 N 
HETATM    2  C   UNL     1       6.890   1.354  -1.390  1.00  0.00     0.321 C 
HETATM    3  O   UNL     1       7.159   2.079  -0.436  1.00  0.00    -0.247 OA
HETATM    4  N   UNL     1       7.799   0.871  -2.306  1.00  0.00    -0.308 N 
HETATM    5  H   UNL     1       5.481   0.131  -2.205  1.00  0.00     0.164 HD
HETATM    6  H   UNL     1       7.411   0.603  -3.198  1.00  0.00     0.170 HD
ENDROOT
BRANCH   1   7
HETATM    7  C   UNL     1       4.519   1.459  -0.777  1.00  0.00     0.103 C 
HETATM    8  C   UNL     1       3.059   0.951  -1.016  1.00  0.00     0.006 C 
HETATM    9  C   UNL     1       2.607   2.444  -0.691  1.00  0.00     0.137 C 
HETATM   10  C   UNL     1       4.054   2.917  -1.035  1.00  0.00     0.035 C 
HETATM   11  C   UNL     1       4.299   3.643  -2.350  1.00  0.00     0.015 C 
BRANCH   8  12
HETATM   12  C   UNL     1       2.616  -0.064   0.063  1.00  0.00     0.010 C 
HETATM   13  C   UNL     1       3.315  -1.410  -0.034  1.00  0.00     0.006 C 
ENDBRANCH   8  12
BRANCH   8  14
HETATM   14  C   UNL     1       2.773   0.456  -2.457  1.00  0.00     0.010 C 
HETATM   15  C   UNL     1       1.316   0.109  -2.725  1.00  0.00     0.006 C 
ENDBRANCH   8  14
BRANCH   9  16
HETATM   16  O   UNL     1       2.292   2.783   0.686  1.00  0.00    -0.389 OA
HETATM   17  C   UNL     1       0.984   2.563   1.175  1.00  0.00     0.202 C 
ENDBRANCH   9  16
ENDBRANCH   1   7
BRANCH   4  18
HETATM   18  C   UNL     1       9.161   1.084  -2.244  1.00  0.00     0.052 A 
HETATM   19  C   UNL     1       9.830   1.387  -1.117  1.00  0.00     0.121 A 
HETATM   20  N   UNL     1      11.172   1.661  -1.141  1.00  0.00    -0.331 N 
HETATM   21  C   UNL     1      11.934   1.681  -2.280  1.00  0.00     0.251 A 
HETATM   22  H   UNL     1      11.647   1.917  -0.283  1.00  0.00     0.168 HD
HETATM   23  O   UNL     1      13.126   1.966  -2.255  1.00  0.00    -0.268 OA
HETATM   24  C   UNL     1      11.218   1.331  -3.546  1.00  0.00     0.008 A 
HETATM   25  C   UNL     1      11.986   1.386  -4.826  1.00  0.00     0.054 C 
HETATM   26  C   UNL     1       9.909   1.017  -3.488  1.00  0.00     0.043 A 
ENDBRANCH   4  18
TORSDOF 5
