REMARK  4 active torsions:
REMARK  status: ('A' for Active; 'I' for Inactive)
REMARK    1  A    between atoms: C_2  and  N_3 
REMARK    2  A    between atoms: C_7  and  C_8 
REMARK    3  A    between atoms: C_8  and  N_9 
REMARK    4  A    between atoms: N_9  and  C_10 
ROOT
HETATM    1  C   UNL     1      -1.944   4.900  -1.868  1.00  0.00     0.079 A 
HETATM    2  C   UNL     1      -2.905   5.673  -1.218  1.00  0.00     0.043 A 
HETATM    3  C   UNL     1      -3.880   6.335  -1.966  1.00  0.00     0.027 A 
HETATM    4  C   UNL     1      -3.872   6.212  -3.350  1.00  0.00     0.060 A 
HETATM    5  C   UNL     1      -4.846   6.859  -4.168  1.00  0.00     0.101 C 
HETATM    6  N   UNL     1      -5.636   7.383  -4.836  1.00  0.00    -0.191 NA
HETATM    7  C   UNL     1      -2.887   5.427  -3.921  1.00  0.00     0.112 A 
HETATM    8  N   UNL     1      -1.939   4.770  -3.210  1.00  0.00    -0.355 N 
ATOM      9  HN  UNL     1      -1.240   4.192  -3.678  1.00  0.00     0.166 HD
ENDROOT
BRANCH   1  10
HETATM   10  N   UNL     1      -1.014   4.200  -1.087  1.00  0.00    -0.277 NA
HETATM   11  H   UNL     1      -0.530   4.842  -0.461  1.00  0.00     0.129 HD
BRANCH  10  12
HETATM   12  C   UNL     1      -0.039   3.423  -1.863  1.00  0.00     0.127 C 
BRANCH  12  13
HETATM   13  C   UNL     1       0.917   2.689  -0.906  1.00  0.00     0.163 C 
HETATM   14  O   UNL     1       1.644   3.676  -0.139  1.00  0.00    -0.381 OA
HETATM   15  C   UNL     1       2.573   3.036   0.744  1.00  0.00     0.198 C 
HETATM   16  C   UNL     1       3.568   2.154  -0.031  1.00  0.00     0.298 C 
HETATM   17  N   UNL     1       2.923   1.131  -0.889  1.00  0.00     0.092 N 
HETATM   18  C   UNL     1       1.896   1.807  -1.712  1.00  0.00     0.305 C 
BRANCH  17  19
HETATM   19  C   UNL     1       2.421   0.012  -0.078  1.00  0.00     0.268 C 
HETATM   20  C   UNL     1       1.764  -1.106  -0.881  1.00  0.00     0.037 C 
ENDBRANCH  17  19
ENDBRANCH  12  13
ENDBRANCH  10  12
ENDBRANCH   1  10
TORSDOF 4
