REMARK  2 active torsions:
REMARK  status: ('A' for Active; 'I' for Inactive)
REMARK    1  A    between atoms: C_2  and  C_5 
REMARK    2  A    between atoms: C_8  and  C_11 
ROOT
HETATM    1  C   UNL     1       3.761  -1.890   1.094  1.00  0.00     0.133 C 
HETATM    2  C   UNL     1       3.454  -1.325  -0.134  1.00  0.00     0.123 C 
HETATM    3  N   UNL     1       3.066  -2.366  -0.935  1.00  0.00    -0.353 N 
HETATM    4  C   UNL     1       3.019  -3.496  -0.144  1.00  0.00     0.087 C 
HETATM    5  N   UNL     1       3.580  -3.264   1.022  1.00  0.00    -0.341 N 
ATOM      6  HN  UNL     1       3.831  -3.954   1.730  1.00  0.00     0.167 HD
HETATM    7  H   UNL     1       2.610  -2.298  -1.837  1.00  0.00     0.166 HD
ENDROOT
BRANCH   4   8
HETATM    8  C   UNL     1       2.142  -4.674  -0.465  1.00  0.00     0.081 C 
HETATM    9  C   UNL     1       2.711  -5.663  -1.488  1.00  0.00     0.015 C 
HETATM   10  C   UNL     1       2.534  -5.215  -2.939  1.00  0.00     0.031 C 
HETATM   11  C   UNL     1       1.157  -4.622  -3.228  1.00  0.00     0.269 C 
HETATM   12  N   UNL     1       0.781  -3.596  -2.253  1.00  0.00     0.084 N 
HETATM   13  C   UNL     1       0.750  -4.178  -0.897  1.00  0.00     0.281 C 
HETATM   14  H   UNL     1      -0.155  -3.250  -2.477  1.00  0.00     0.315 HD
ENDBRANCH   4   8
BRANCH   1  15
HETATM   15  C   UNL     1       4.092  -1.212   2.391  1.00  0.00     0.433 C 
HETATM   16  F   UNL     1       3.806   0.121   2.349  1.00  0.00    -0.165 F 
HETATM   17  F   UNL     1       5.405  -1.313   2.716  1.00  0.00    -0.165 F 
HETATM   18  F   UNL     1       3.379  -1.719   3.435  1.00  0.00    -0.165 F 
ENDBRANCH   1  15
TORSDOF 2
