REMARK  3 active torsions:
REMARK  status: ('A' for Active; 'I' for Inactive)
REMARK       I    between atoms: C_2  and  N_3 
REMARK       I    between atoms: C_2  and  N_10 
REMARK    1  A    between atoms: N_3  and  C_4 
REMARK    2  A    between atoms: C_4  and  C_5 
REMARK    3  A    between atoms: N_10  and  C_11 
ROOT
HETATM    1  O   UNL     1       1.193  -0.090  -0.390  1.00  0.00    -0.247 OA
HETATM    2  C   UNL     1       2.357  -0.016  -0.013  1.00  0.00     0.320 C 
HETATM    3  N   UNL     1       3.003  -1.089   0.547  1.00  0.00    -0.340 N 
HETATM    4  N   UNL     1       3.158   1.099  -0.069  1.00  0.00    -0.308 N 
HETATM    5  H   UNL     1       3.916  -0.986   0.965  1.00  0.00     0.164 HD
HETATM    6  H   UNL     1       4.049   1.035   0.399  1.00  0.00     0.170 HD
ENDROOT
BRANCH   3   7
HETATM    7  C   UNL     1       2.324  -2.351   0.795  1.00  0.00     0.156 C 
BRANCH   7   8
HETATM    8  C   UNL     1       2.376  -2.732   2.274  1.00  0.00     0.139 C 
HETATM    9  C   UNL     1       1.725  -1.739   3.227  1.00  0.00     0.035 C 
HETATM   10  C   UNL     1       2.603  -1.767   4.462  1.00  0.00     0.029 C 
HETATM   11  C   UNL     1       3.726  -2.726   4.126  1.00  0.00     0.168 C 
HETATM   12  O   UNL     1       3.749  -2.825   2.700  1.00  0.00    -0.384 OA
ENDBRANCH   7   8
ENDBRANCH   3   7
BRANCH   4  13
HETATM   13  C   UNL     1       2.795   2.362  -0.590  1.00  0.00     0.051 A 
HETATM   14  C   UNL     1       1.648   2.590  -1.346  1.00  0.00     0.032 A 
HETATM   15  C   UNL     1       1.353   3.876  -1.795  1.00  0.00     0.019 A 
HETATM   16  C   UNL     1       2.225   4.902  -1.477  1.00  0.00     0.088 A 
HETATM   17  N   UNL     1       3.358   4.725  -0.766  1.00  0.00    -0.373 N 
HETATM   18  C   UNL     1       3.616   3.461  -0.347  1.00  0.00     0.117 A 
ATOM     19  HN  UNL     1       3.987   5.500  -0.555  1.00  0.00     0.164 HD
ENDBRANCH   4  13
TORSDOF 3
