REMARK  4 active torsions:
REMARK  status: ('A' for Active; 'I' for Inactive)
REMARK    1  A    between atoms: C_5  and  N_6 
REMARK       I    between atoms: N_6  and  C_7 
REMARK       I    between atoms: C_7  and  N_9 
REMARK    2  A    between atoms: N_9  and  C_10 
REMARK    3  A    between atoms: C_10  and  C_11 
REMARK    4  A    between atoms: C_16  and  O_17 
ROOT
HETATM    1  N   UNL     1       7.192  -0.258   0.227  1.00  0.00    -0.295 N 
HETATM    2  C   UNL     1       7.942   0.880   0.266  1.00  0.00     0.321 C 
HETATM    3  O   UNL     1       8.029   1.514   1.316  1.00  0.00    -0.247 OA
HETATM    4  N   UNL     1       8.610   1.206  -0.871  1.00  0.00    -0.342 N 
HETATM    5  H   UNL     1       6.799  -0.506   1.121  1.00  0.00     0.172 HD
HETATM    6  H   UNL     1       8.337   0.678  -1.698  1.00  0.00     0.164 HD
ENDROOT
BRANCH   1   7
HETATM    7  C   UNL     1       6.947  -1.098  -0.867  1.00  0.00     0.108 A 
HETATM    8  C   UNL     1       6.325  -2.317  -0.628  1.00  0.00     0.049 A 
HETATM    9  C   UNL     1       6.075  -3.170  -1.704  1.00  0.00     0.012 A 
HETATM   10  C   UNL     1       6.418  -2.771  -2.996  1.00  0.00    -0.046 A 
HETATM   11  C   UNL     1       6.151  -3.621  -4.195  1.00  0.00     0.049 C 
HETATM   12  C   UNL     1       7.033  -1.536  -3.137  1.00  0.00     0.096 A 
HETATM   13  N   UNL     1       7.310  -0.706  -2.108  1.00  0.00    -0.352 N 
ATOM     14  HN  UNL     1       7.778   0.187  -2.263  1.00  0.00     0.166 HD
ENDBRANCH   1   7
BRANCH   4  15
HETATM   15  C   UNL     1       9.489   2.339  -1.021  1.00  0.00     0.131 C 
BRANCH  15  16
HETATM   16  C   UNL     1      10.927   1.918  -1.376  1.00  0.00     0.032 C 
HETATM   17  C   UNL     1      11.592   1.062  -0.281  1.00  0.00     0.009 C 
HETATM   18  C   UNL     1      11.867   1.858   0.992  1.00  0.00     0.001 C 
HETATM   19  C   UNL     1      12.692   3.115   0.719  1.00  0.00     0.002 C 
HETATM   20  C   UNL     1      12.136   3.961  -0.424  1.00  0.00     0.032 C 
HETATM   21  C   UNL     1      11.834   3.128  -1.672  1.00  0.00     0.123 C 
BRANCH  21  22
HETATM   22  O   UNL     1      11.273   3.951  -2.690  1.00  0.00    -0.395 OA
HETATM   23  H   UNL     1      10.552   4.476  -2.304  1.00  0.00     0.210 HD
ENDBRANCH  21  22
ENDBRANCH  15  16
ENDBRANCH   4  15
TORSDOF 4
