REMARK  7 active torsions:
REMARK  status: ('A' for Active; 'I' for Inactive)
REMARK    1  A    between atoms: C_2  and  C_3 
REMARK    2  A    between atoms: C_2  and  N_11 
REMARK    3  A    between atoms: C_3  and  N_4 
REMARK    4  A    between atoms: N_11  and  S_12 
REMARK    5  A    between atoms: S_12  and  N_15 
REMARK    6  A    between atoms: N_15  and  C_17 
REMARK    7  A    between atoms: C_17  and  C_19 
ROOT
HETATM    1  N   UNL     1       3.189  -1.425  -0.248  1.00  0.00    -0.201 NA
HETATM    2  H   UNL     1       2.944  -1.817  -1.155  1.00  0.00     0.141 HD
ENDROOT
BRANCH   1   3
HETATM    3  C   UNL     1       2.522  -0.051  -0.149  1.00  0.00     0.088 C 
HETATM    4  C   UNL     1       1.007  -0.270  -0.242  1.00  0.00     0.029 C 
BRANCH   3   5
HETATM    5  C   UNL     1       2.886   0.730   1.128  1.00  0.00     0.169 C 
BRANCH   5   6
HETATM    6  N   UNL     1       2.310   2.058   1.184  1.00  0.00    -0.285 N 
HETATM    7  C   UNL     1       1.494   2.577   2.139  1.00  0.00     0.201 A 
HETATM    8  N   UNL     1       1.299   3.854   1.899  1.00  0.00    -0.346 N 
HETATM    9  C   UNL     1       2.046   4.074   0.776  1.00  0.00     0.198 A 
ATOM     10  HN  UNL     1       0.729   4.519   2.423  1.00  0.00     0.167 HD
HETATM   11  N   UNL     1       2.667   2.998   0.288  1.00  0.00    -0.293 N 
ATOM     12  HN  UNL     1       3.254   2.911  -0.541  1.00  0.00     0.188 HD
ENDBRANCH   5   6
ENDBRANCH   3   5
ENDBRANCH   1   3
BRANCH   1  13
HETATM   13  S   UNL     1       4.874  -1.383  -0.116  1.00  0.00     0.281 S 
HETATM   14  O   UNL     1       5.350  -0.591  -1.225  1.00  0.00    -0.194 OA
HETATM   15  O   UNL     1       5.148  -1.014   1.249  1.00  0.00    -0.194 OA
BRANCH  13  16
HETATM   16  N   UNL     1       5.392  -2.990  -0.359  1.00  0.00    -0.197 NA
HETATM   17  C   UNL     1       4.978  -3.568  -1.668  1.00  0.00     0.131 C 
BRANCH  16  18
HETATM   18  C   UNL     1       6.912  -3.120  -0.158  1.00  0.00     0.075 C 
HETATM   19  C   UNL     1       7.317  -2.804   1.289  1.00  0.00     0.027 C 
BRANCH  18  20
HETATM   20  C   UNL     1       7.420  -4.514  -0.494  1.00  0.00     0.004 A 
HETATM   21  C   UNL     1       8.901  -4.835  -0.416  1.00  0.00     0.007 A 
HETATM   22  C   UNL     1       8.230  -4.755  -1.752  1.00  0.00     0.007 A 
ENDBRANCH  18  20
ENDBRANCH  16  18
ENDBRANCH  13  16
ENDBRANCH   1  13
TORSDOF 7
