REMARK  4 active torsions:
REMARK  status: ('A' for Active; 'I' for Inactive)
REMARK    1  A    between atoms: C_2  and  C_3 
REMARK    2  A    between atoms: C_2  and  N_11 
REMARK    3  A    between atoms: C_3  and  N_4 
REMARK       I    between atoms: N_11  and  C_12 
REMARK    4  A    between atoms: C_12  and  C_14 
ROOT
HETATM    1  N   UNL     1       3.122  -0.035   1.248  1.00  0.00    -0.355 N 
HETATM    2  C   UNL     1       4.482  -0.197   1.392  1.00  0.00     0.222 C 
HETATM    3  O   UNL     1       5.254  -0.148   0.440  1.00  0.00    -0.273 OA
HETATM    4  H   UNL     1       2.517  -0.112   2.058  1.00  0.00     0.162 HD
ENDROOT
BRANCH   1   5
HETATM    5  C   UNL     1       2.506   0.121  -0.068  1.00  0.00     0.100 C 
HETATM    6  C   UNL     1       2.226  -1.257  -0.667  1.00  0.00     0.034 C 
BRANCH   5   7
HETATM    7  C   UNL     1       1.215   0.947  -0.008  1.00  0.00     0.174 C 
BRANCH   7   8
HETATM    8  N   UNL     1       1.404   2.250   0.590  1.00  0.00    -0.285 N 
HETATM    9  C   UNL     1       2.163   3.285   0.139  1.00  0.00     0.201 A 
HETATM   10  N   UNL     1       2.038   4.308   0.953  1.00  0.00    -0.346 N 
HETATM   11  C   UNL     1       1.179   3.840   1.906  1.00  0.00     0.198 A 
ATOM     12  HN  UNL     1       2.475   5.227   0.889  1.00  0.00     0.167 HD
HETATM   13  N   UNL     1       0.770   2.579   1.734  1.00  0.00    -0.293 N 
ATOM     14  HN  UNL     1       0.146   2.017   2.313  1.00  0.00     0.188 HD
ENDBRANCH   7   8
ENDBRANCH   5   7
ENDBRANCH   1   5
BRANCH   2  15
HETATM   15  C   UNL     1       4.951  -0.372   2.833  1.00  0.00     0.088 C 
HETATM   16  C   UNL     1       6.475  -0.420   2.943  1.00  0.00     0.034 C 
HETATM   17  C   UNL     1       7.022  -1.748   2.439  1.00  0.00     0.126 C 
HETATM   18  N   UNL     1       6.379  -2.879   3.089  1.00  0.00    -0.356 N 
HETATM   19  C   UNL     1       7.058  -4.160   3.024  1.00  0.00     0.152 C 
HETATM   20  C   UNL     1       4.991  -2.910   3.160  1.00  0.00     0.220 C 
HETATM   21  O   UNL     1       4.332  -3.947   3.111  1.00  0.00    -0.273 OA
HETATM   22  C   UNL     1       4.327  -1.592   3.498  1.00  0.00     0.117 C 
ENDBRANCH   2  15
TORSDOF 4
