REMARK  4 active torsions:
REMARK  status: ('A' for Active; 'I' for Inactive)
REMARK    1  A    between atoms: C_2  and  C_3 
REMARK    2  A    between atoms: C_7  and  C_8 
REMARK    3  A    between atoms: C_8  and  C_9 
REMARK    4  A    between atoms: C_9  and  N_10 
REMARK       I    between atoms: N_10  and  C_11 
REMARK       I    between atoms: C_11  and  N_13 
ROOT
HETATM    1  N   UNL     1       4.934  -1.520   6.310  1.00  0.00    -0.343 N 
HETATM    2  C   UNL     1       5.317  -2.800   6.614  1.00  0.00     0.318 C 
HETATM    3  O   UNL     1       5.215  -3.707   5.794  1.00  0.00    -0.247 OA
HETATM    4  N   UNL     1       5.774  -3.013   7.907  1.00  0.00    -0.332 N 
HETATM    5  C   UNL     1       5.832  -2.000   8.969  1.00  0.00     0.147 C 
HETATM    6  C   UNL     1       4.589  -2.056   9.861  1.00  0.00     0.142 C 
HETATM    7  N   UNL     1       4.710  -3.091  10.874  1.00  0.00    -0.359 N 
HETATM    8  C   UNL     1       4.955  -4.413  10.642  1.00  0.00     0.219 C 
HETATM    9  O   UNL     1       5.265  -5.145  11.578  1.00  0.00    -0.274 OA
HETATM   10  C   UNL     1       4.843  -4.923   9.222  1.00  0.00     0.122 C 
HETATM   11  C   UNL     1       5.975  -4.404   8.343  1.00  0.00     0.136 C 
HETATM   12  H   UNL     1       5.307  -0.755   6.852  1.00  0.00     0.164 HD
HETATM   13  H   UNL     1       4.833  -2.818  11.842  1.00  0.00     0.162 HD
ENDROOT
BRANCH   1  14
HETATM   14  C   UNL     1       4.570  -1.142   4.954  1.00  0.00     0.131 C 
BRANCH  14  15
HETATM   15  C   UNL     1       3.562   0.003   4.915  1.00  0.00     0.084 C 
BRANCH  15  16
HETATM   16  C   UNL     1       4.111   1.287   5.466  1.00  0.00     0.052 A 
HETATM   17  N   UNL     1       4.558   1.442   6.697  1.00  0.00    -0.363 N 
HETATM   18  C   UNL     1       4.870   2.773   6.911  1.00  0.00     0.103 A 
ATOM     19  HN  UNL     1       4.658   0.696   7.385  1.00  0.00     0.165 HD
HETATM   20  C   UNL     1       4.687   3.616   5.833  1.00  0.00    -0.001 A 
HETATM   21  S   UNL     1       4.121   2.708   4.495  1.00  0.00    -0.080 SA
BRANCH  20  22
HETATM   22  C   UNL     1       4.890   5.094   5.742  1.00  0.00     0.043 C 
HETATM   23  C   UNL     1       6.317   5.454   5.361  1.00  0.00     0.010 C 
ENDBRANCH  20  22
ENDBRANCH  15  16
ENDBRANCH  14  15
ENDBRANCH   1  14
TORSDOF 4
