REMARK  6 active torsions:
REMARK  status: ('A' for Active; 'I' for Inactive)
REMARK    1  A    between atoms: O_2  and  C_3 
REMARK    2  A    between atoms: C_3  and  C_4 
REMARK    3  A    between atoms: C_4  and  N_5 
REMARK    4  A    between atoms: N_5  and  C_6 
REMARK    5  A    between atoms: C_9  and  S_13 
REMARK    6  A    between atoms: S_13  and  N_16 
ROOT
HETATM    1  C   UNL     1       6.442  -2.308  -1.759  1.00  0.00     0.079 A 
HETATM    2  C   UNL     1       7.281  -1.216  -1.986  1.00  0.00     0.044 A 
HETATM    3  C   UNL     1       8.626  -1.424  -2.284  1.00  0.00     0.030 A 
HETATM    4  C   UNL     1       9.083  -2.728  -2.413  1.00  0.00     0.095 A 
HETATM    5  C   UNL     1       8.202  -3.763  -2.163  1.00  0.00     0.114 A 
HETATM    6  N   UNL     1       6.898  -3.573  -1.832  1.00  0.00    -0.355 N 
ATOM      7  HN  UNL     1       6.283  -4.365  -1.644  1.00  0.00     0.166 HD
ENDROOT
BRANCH   4   8
HETATM    8  S   UNL     1      10.748  -3.090  -2.852  1.00  0.00     0.262 S 
HETATM    9  O   UNL     1      11.603  -2.381  -1.924  1.00  0.00    -0.200 OA
HETATM   10  O   UNL     1      10.841  -4.527  -3.012  1.00  0.00    -0.200 OA
BRANCH   8  11
HETATM   11  N   UNL     1      10.949  -2.423  -4.373  1.00  0.00    -0.307 N 
HETATM   12  C   UNL     1      11.376  -1.029  -4.560  1.00  0.00     0.135 C 
HETATM   13  C   UNL     1      10.997  -0.691  -6.001  1.00  0.00     0.022 C 
HETATM   14  C   UNL     1      10.731  -2.035  -6.660  1.00  0.00     0.022 C 
HETATM   15  C   UNL     1      10.168  -2.879  -5.526  1.00  0.00     0.135 C 
ENDBRANCH   8  11
ENDBRANCH   4   8
BRANCH   1  16
HETATM   16  N   UNL     1       5.085  -2.042  -1.531  1.00  0.00    -0.277 NA
HETATM   17  H   UNL     1       4.663  -1.807  -2.430  1.00  0.00     0.129 HD
BRANCH  16  18
HETATM   18  C   UNL     1       4.331  -3.134  -0.911  1.00  0.00     0.120 C 
BRANCH  18  19
HETATM   19  C   UNL     1       2.838  -2.773  -0.904  1.00  0.00     0.181 C 
BRANCH  19  20
HETATM   20  O   UNL     1       2.357  -2.754  -2.256  1.00  0.00    -0.395 OA
HETATM   21  C   UNL     1       0.972  -2.440  -2.312  1.00  0.00     0.201 C 
ENDBRANCH  19  20
ENDBRANCH  18  19
ENDBRANCH  16  18
ENDBRANCH   1  16
TORSDOF 6
