REMARK  2 active torsions:
REMARK  status: ('A' for Active; 'I' for Inactive)
REMARK    1  A    between atoms: C_8  and  N_9 
REMARK       I    between atoms: N_9  and  C_10 
REMARK       I    between atoms: C_10  and  N_12 
REMARK    2  A    between atoms: N_12  and  C_13 
ROOT
HETATM    1  N   UNL     1       2.272  -2.377   0.504  1.00  0.00    -0.294 N 
HETATM    2  C   UNL     1       0.994  -2.595   0.068  1.00  0.00     0.322 C 
HETATM    3  O   UNL     1       0.458  -1.813  -0.711  1.00  0.00    -0.247 OA
HETATM    4  N   UNL     1       0.345  -3.649   0.630  1.00  0.00    -0.337 N 
HETATM    5  H   UNL     1       2.646  -1.491   0.201  1.00  0.00     0.172 HD
HETATM    6  H   UNL     1       0.973  -4.340   1.040  1.00  0.00     0.164 HD
ENDROOT
BRANCH   1   7
HETATM    7  C   UNL     1       3.038  -3.180   1.363  1.00  0.00     0.114 A 
HETATM    8  C   UNL     1       4.169  -2.649   1.996  1.00  0.00    -0.018 A 
HETATM    9  C   UNL     1       4.626  -1.230   1.823  1.00  0.00     0.052 C 
HETATM   10  C   UNL     1       4.891  -3.493   2.852  1.00  0.00     0.012 A 
HETATM   11  C   UNL     1       4.487  -4.809   3.046  1.00  0.00     0.018 A 
HETATM   12  C   UNL     1       3.367  -5.246   2.372  1.00  0.00     0.089 A 
HETATM   13  N   UNL     1       2.637  -4.463   1.554  1.00  0.00    -0.352 N 
ATOM     14  HN  UNL     1       1.804  -4.825   1.090  1.00  0.00     0.166 HD
ENDBRANCH   1   7
BRANCH   4  15
HETATM   15  C   UNL     1      -1.052  -3.975   0.425  1.00  0.00     0.101 C 
HETATM   16  C   UNL     1      -1.626  -4.645   1.685  1.00  0.00     0.041 C 
HETATM   17  C   UNL     1      -2.781  -5.564   1.304  1.00  0.00     0.142 C 
HETATM   18  S   UNL     1      -2.889  -5.558  -0.470  1.00  0.00     0.146 S 
HETATM   19  O   UNL     1      -2.954  -6.927  -0.945  1.00  0.00    -0.228 OA
HETATM   20  O   UNL     1      -3.859  -4.560  -0.862  1.00  0.00    -0.228 OA
HETATM   21  C   UNL     1      -1.259  -4.918  -0.748  1.00  0.00     0.165 C 
ENDBRANCH   4  15
TORSDOF 2
