REMARK  4 active torsions:
REMARK  status: ('A' for Active; 'I' for Inactive)
REMARK    1  A    between atoms: C_2  and  C_3 
REMARK    2  A    between atoms: C_9  and  N_10 
REMARK    3  A    between atoms: N_10  and  C_11 
REMARK    4  A    between atoms: C_15  and  O_16 
ROOT
HETATM    1  C   UNL     1       3.102  -0.053   1.399  1.00  0.00     0.052 A 
HETATM    2  N   UNL     1       3.300  -1.277   1.938  1.00  0.00    -0.353 N 
ATOM      3  HN  UNL     1       3.189  -2.133   1.394  1.00  0.00     0.166 HD
HETATM    4  C   UNL     1       3.652  -1.297   3.234  1.00  0.00     0.182 A 
HETATM    5  N   UNL     1       3.786  -0.230   4.042  1.00  0.00    -0.341 N 
ATOM      6  HN  UNL     1       4.014  -0.329   5.031  1.00  0.00     0.167 HD
HETATM    7  C   UNL     1       3.602   0.976   3.472  1.00  0.00     0.122 A 
HETATM    8  C   UNL     1       3.287   1.106   2.126  1.00  0.00     0.177 A 
HETATM    9  F   UNL     1       3.073   2.310   1.577  1.00  0.00    -0.201 F 
ENDROOT
BRANCH   7  10
HETATM   10  N   UNL     1       3.650   2.138   4.253  1.00  0.00    -0.267 NA
HETATM   11  H   UNL     1       4.409   2.748   3.954  1.00  0.00     0.129 HD
BRANCH  10  12
HETATM   12  C   UNL     1       3.510   1.995   5.704  1.00  0.00     0.116 C 
HETATM   13  C   UNL     1       2.116   1.487   6.092  1.00  0.00     0.190 C 
HETATM   14  O   UNL     1       1.665   2.208   7.246  1.00  0.00    -0.387 OA
HETATM   15  C   UNL     1       2.647   3.199   7.578  1.00  0.00     0.201 C 
HETATM   16  C   UNL     1       3.540   3.376   6.363  1.00  0.00     0.162 C 
BRANCH  16  17
HETATM   17  O   UNL     1       2.990   4.390   5.503  1.00  0.00    -0.392 OA
HETATM   18  H   UNL     1       2.449   3.923   4.836  1.00  0.00     0.210 HD
ENDBRANCH  16  17
ENDBRANCH  10  12
ENDBRANCH   7  10
BRANCH   1  19
HETATM   19  C   UNL     1       2.541   0.017   0.004  1.00  0.00     0.056 C 
HETATM   20  C   UNL     1       1.019   0.062   0.032  1.00  0.00     0.011 C 
ENDBRANCH   1  19
TORSDOF 4
