REMARK  7 active torsions:
REMARK  status: ('A' for Active; 'I' for Inactive)
REMARK    1  A    between atoms: O_2  and  C_3 
REMARK    2  A    between atoms: C_3  and  C_4 
REMARK    3  A    between atoms: C_4  and  N_5 
REMARK    4  A    between atoms: C_8  and  C_13 
REMARK       I    between atoms: C_13  and  N_15 
REMARK    5  A    between atoms: N_15  and  C_16 
REMARK    6  A    between atoms: C_16  and  C_18 
REMARK    7  A    between atoms: C_18  and  N_19 
ROOT
HETATM    1  C   UNL     1       4.044   5.625   2.611  1.00  0.00     0.270 C 
HETATM    2  O   UNL     1       4.466   6.489   3.366  1.00  0.00    -0.266 OA
HETATM    3  N   UNL     1       2.981   5.764   1.755  1.00  0.00    -0.350 N 
HETATM    4  H   UNL     1       2.731   4.956   1.191  1.00  0.00     0.163 HD
ENDROOT
BRANCH   1   5
HETATM    5  C   UNL     1       4.709   4.245   2.616  1.00  0.00     0.116 A 
HETATM    6  N   UNL     1       4.023   3.195   2.267  1.00  0.00    -0.290 N 
HETATM    7  N   UNL     1       4.682   1.968   2.336  1.00  0.00    -0.255 N 
ATOM      8  HN  UNL     1       3.053   3.266   1.959  1.00  0.00     0.187 HD
HETATM    9  C   UNL     1       5.986   1.803   2.804  1.00  0.00     0.262 A 
HETATM   10  C   UNL     1       6.708   3.041   3.154  1.00  0.00     0.078 A 
HETATM   11  O   UNL     1       6.561   0.730   2.955  1.00  0.00    -0.267 OA
HETATM   12  C   UNL     1       6.115   4.231   3.059  1.00  0.00     0.042 A 
BRANCH   7  13
HETATM   13  C   UNL     1       3.927   0.787   1.919  1.00  0.00     0.178 C 
BRANCH  13  14
HETATM   14  C   UNL     1       3.478   0.860   0.459  1.00  0.00     0.189 C 
BRANCH  14  15
HETATM   15  O   UNL     1       4.616   0.900  -0.406  1.00  0.00    -0.394 OA
HETATM   16  C   UNL     1       4.236   1.027  -1.768  1.00  0.00     0.201 C 
ENDBRANCH  14  15
ENDBRANCH  13  14
ENDBRANCH   7  13
ENDBRANCH   1   5
BRANCH   3  17
HETATM   17  C   UNL     1       2.182   6.989   1.654  1.00  0.00     0.109 C 
HETATM   18  C   UNL     1       1.465   7.278   2.977  1.00  0.00     0.034 C 
BRANCH  17  19
HETATM   19  C   UNL     1       2.976   8.242   1.150  1.00  0.00     0.297 C 
BRANCH  19  20
HETATM   20  N   UNL     1       3.710   8.069  -0.118  1.00  0.00     0.094 N 
HETATM   21  C   UNL     1       4.505   9.263  -0.490  1.00  0.00     0.298 C 
HETATM   22  C   UNL     1       3.823  10.299  -1.413  1.00  0.00     0.198 C 
HETATM   23  O   UNL     1       3.134   9.693  -2.511  1.00  0.00    -0.388 OA
HETATM   24  C   UNL     1       2.186   8.742  -2.022  1.00  0.00     0.198 C 
HETATM   25  C   UNL     1       2.909   7.620  -1.268  1.00  0.00     0.298 C 
ENDBRANCH  19  20
ENDBRANCH  17  19
ENDBRANCH   3  17
TORSDOF 7
