REMARK  5 active torsions:
REMARK  status: ('A' for Active; 'I' for Inactive)
REMARK    1  A    between atoms: S_2  and  C_3 
REMARK    2  A    between atoms: C_6  and  O_7 
REMARK    3  A    between atoms: O_7  and  C_8 
REMARK    4  A    between atoms: C_8  and  C_9 
REMARK    5  A    between atoms: C_9  and  N_10 
ROOT
HETATM    1  C   UNL     1       4.242  -7.988  -1.410  1.00  0.00     0.160 C 
ENDROOT
BRANCH   1   2
HETATM    2  C   UNL     1       3.864  -6.687  -0.688  1.00  0.00     0.196 C 
BRANCH   2   3
HETATM    3  O   UNL     1       4.630  -5.595  -1.213  1.00  0.00    -0.350 OA
BRANCH   3   4
HETATM    4  C   UNL     1       4.340  -4.365  -0.686  1.00  0.00     0.068 A 
HETATM    5  C   UNL     1       5.401  -3.456  -0.636  1.00  0.00     0.038 A 
HETATM    6  C   UNL     1       5.208  -2.161  -0.143  1.00  0.00     0.021 A 
HETATM    7  C   UNL     1       3.942  -1.747   0.278  1.00  0.00    -0.000 A 
HETATM    8  C   UNL     1       2.880  -2.651   0.221  1.00  0.00     0.021 A 
HETATM    9  C   UNL     1       3.077  -3.951  -0.263  1.00  0.00     0.038 A 
BRANCH   7  10
HETATM   10  S   UNL     1       3.725  -0.095   0.915  1.00  0.00    -0.134 SA
HETATM   11  C   UNL     1       2.517   0.544  -0.277  1.00  0.00     0.095 C 
ENDBRANCH   7  10
ENDBRANCH   3   4
ENDBRANCH   2   3
ENDBRANCH   1   2
BRANCH   1  12
HETATM   12  N   UNL     1       5.626  -8.425  -1.192  1.00  0.00    -0.306 N 
HETATM   13  C   UNL     1       6.601  -8.031  -2.089  1.00  0.00     0.125 A 
HETATM   14  C   UNL     1       7.862  -8.469  -2.012  1.00  0.00     0.117 A 
HETATM   15 CL   UNL     1       9.058  -8.010  -3.151  1.00  0.00    -0.077 Cl
HETATM   16  C   UNL     1       8.224  -9.408  -0.919  1.00  0.00     0.272 A 
HETATM   17  O   UNL     1       9.327  -9.928  -0.814  1.00  0.00    -0.266 OA
HETATM   18  N   UNL     1       7.216  -9.673  -0.025  1.00  0.00    -0.274 N 
HETATM   19  C   UNL     1       5.912  -9.253  -0.116  1.00  0.00     0.329 A 
HETATM   20  H   UNL     1       7.432 -10.315   0.723  1.00  0.00     0.173 HD
HETATM   21  O   UNL     1       5.077  -9.624   0.706  1.00  0.00    -0.246 OA
ENDBRANCH   1  12
TORSDOF 5
