REMARK  4 active torsions:
REMARK  status: ('A' for Active; 'I' for Inactive)
REMARK    1  A    between atoms: O_1  and  C_2 
REMARK    2  A    between atoms: C_7  and  N_8 
REMARK       I    between atoms: N_8  and  C_9 
REMARK       I    between atoms: C_9  and  N_11 
REMARK    3  A    between atoms: N_11  and  C_12 
REMARK    4  A    between atoms: C_17  and  C_19 
ROOT
HETATM    1  N   UNL     1       2.519  -2.295   0.669  1.00  0.00    -0.336 N 
HETATM    2  C   UNL     1       2.765  -2.194   2.004  1.00  0.00     0.322 C 
HETATM    3  O   UNL     1       3.451  -1.299   2.493  1.00  0.00    -0.247 OA
HETATM    4  N   UNL     1       2.204  -3.140   2.814  1.00  0.00    -0.288 N 
HETATM    5  H   UNL     1       1.718  -2.859   0.401  1.00  0.00     0.164 HD
HETATM    6  H   UNL     1       2.334  -3.018   3.806  1.00  0.00     0.172 HD
ENDROOT
BRANCH   1   7
HETATM    7  C   UNL     1       2.925  -1.300  -0.309  1.00  0.00     0.114 C 
HETATM    8  C   UNL     1       1.981  -0.077  -0.304  1.00  0.00     0.140 C 
HETATM    9  C   UNL     1       2.425   0.939  -1.360  1.00  0.00     0.034 C 
HETATM   10  C   UNL     1       2.538   0.313  -2.753  1.00  0.00     0.003 C 
HETATM   11  C   UNL     1       3.415  -0.937  -2.755  1.00  0.00     0.002 C 
HETATM   12  C   UNL     1       2.971  -1.945  -1.701  1.00  0.00     0.028 C 
BRANCH   8  13
HETATM   13  O   UNL     1       0.638  -0.493  -0.587  1.00  0.00    -0.394 OA
HETATM   14  H   UNL     1       0.074   0.298  -0.538  1.00  0.00     0.210 HD
ENDBRANCH   8  13
ENDBRANCH   1   7
BRANCH   4  15
HETATM   15  C   UNL     1       1.466  -4.195   2.361  1.00  0.00     0.169 A 
HETATM   16  N   UNL     1       1.255  -4.552   1.116  1.00  0.00    -0.279 N 
HETATM   17  N   UNL     1       0.392  -5.613   1.028  1.00  0.00    -0.296 N 
ATOM     18  HN  UNL     1       1.682  -4.095   0.310  1.00  0.00     0.189 HD
HETATM   19  C   UNL     1      -0.029  -5.994   2.214  1.00  0.00     0.074 A 
ATOM     20  HN  UNL     1       0.111  -6.053   0.151  1.00  0.00     0.187 HD
HETATM   21  S   UNL     1       0.668  -5.140   3.530  1.00  0.00    -0.037 SA
BRANCH  19  22
HETATM   22  C   UNL     1      -1.077  -7.090   2.370  1.00  0.00     0.044 A 
HETATM   23  C   UNL     1      -1.079  -8.223   1.362  1.00  0.00     0.012 A 
HETATM   24  C   UNL     1      -2.145  -7.188   1.295  1.00  0.00     0.012 A 
ENDBRANCH  19  22
ENDBRANCH   4  15
TORSDOF 4
