REMARK  3 active torsions:
REMARK  status: ('A' for Active; 'I' for Inactive)
REMARK    1  A    between atoms: C_5  and  C_6 
REMARK    2  A    between atoms: C_6  and  C_7 
REMARK       I    between atoms: C_7  and  N_9 
REMARK    3  A    between atoms: N_9  and  C_10 
ROOT
HETATM    1  C   UNL     1       6.982   0.809  -0.369  1.00  0.00     0.223 C 
HETATM    2  O   UNL     1       7.024  -0.173  -1.105  1.00  0.00    -0.273 OA
HETATM    3  N   UNL     1       8.067   1.274   0.345  1.00  0.00    -0.356 N 
HETATM    4  H   UNL     1       7.996   2.242   0.656  1.00  0.00     0.162 HD
ENDROOT
BRANCH   1   5
HETATM    5  C   UNL     1       5.689   1.557  -0.098  1.00  0.00     0.160 C 
BRANCH   5   6
HETATM    6  C   UNL     1       5.750   2.985  -0.529  1.00  0.00     0.025 A 
HETATM    7  N   UNL     1       6.675   3.833   0.071  1.00  0.00    -0.357 N 
HETATM    8  C   UNL     1       6.560   5.048  -0.426  1.00  0.00     0.047 A 
ATOM      9  HN  UNL     1       7.344   3.555   0.790  1.00  0.00     0.166 HD
HETATM   10  C   UNL     1       7.401   6.209  -0.026  1.00  0.00     0.076 C 
HETATM   11  S   UNL     1       5.335   5.249  -1.614  1.00  0.00    -0.087 SA
HETATM   12  C   UNL     1       4.933   3.593  -1.463  1.00  0.00     0.077 A 
ENDBRANCH   5   6
ENDBRANCH   1   5
BRANCH   3  13
HETATM   13  C   UNL     1       9.385   0.695   0.203  1.00  0.00     0.084 C 
HETATM   14  C   UNL     1      10.228   0.854   1.471  1.00  0.00     0.025 C 
HETATM   15  C   UNL     1      11.662   1.105   1.006  1.00  0.00     0.002 C 
HETATM   16  C   UNL     1      11.638   1.009  -0.514  1.00  0.00     0.002 C 
HETATM   17  C   UNL     1      10.210   1.365  -0.892  1.00  0.00     0.025 C 
ENDBRANCH   3  13
TORSDOF 3
