REMARK  6 active torsions:
REMARK  status: ('A' for Active; 'I' for Inactive)
REMARK    1  A    between atoms: O_1  and  C_2 
REMARK    2  A    between atoms: C_2  and  C_3 
REMARK    3  A    between atoms: C_2  and  C_12 
REMARK    4  A    between atoms: C_3  and  O_4 
REMARK    5  A    between atoms: O_4  and  C_5 
REMARK    6  A    between atoms: C_12  and  N_13 
ROOT
HETATM    1  C   UNL     1       2.515  -0.083   0.044  1.00  0.00     0.160 C 
ENDROOT
BRANCH   1   2
HETATM    2  O   UNL     1       1.081  -0.088   0.008  1.00  0.00    -0.392 OA
HETATM    3  H   UNL     1       0.809  -1.017   0.142  1.00  0.00     0.210 HD
ENDBRANCH   1   2
BRANCH   1   4
HETATM    4  C   UNL     1       3.019  -0.991  -1.083  1.00  0.00     0.209 C 
BRANCH   4   5
HETATM    5  O   UNL     1       2.561  -2.319  -0.805  1.00  0.00    -0.345 OA
BRANCH   5   6
HETATM    6  C   UNL     1       2.774  -3.267  -1.769  1.00  0.00     0.107 A 
HETATM    7  C   UNL     1       3.499  -3.079  -2.947  1.00  0.00     0.040 A 
HETATM    8  C   UNL     1       3.648  -4.132  -3.859  1.00  0.00     0.003 A 
HETATM    9  C   UNL     1       3.077  -5.377  -3.599  1.00  0.00     0.003 A 
HETATM   10  C   UNL     1       2.354  -5.574  -2.426  1.00  0.00     0.045 A 
HETATM   11  C   UNL     1       2.209  -4.524  -1.522  1.00  0.00     0.149 A 
HETATM   12  F   UNL     1       1.505  -4.735  -0.400  1.00  0.00    -0.203 F 
ENDBRANCH   5   6
ENDBRANCH   4   5
ENDBRANCH   1   4
BRANCH   1  13
HETATM   13  C   UNL     1       3.025   1.348  -0.146  1.00  0.00     0.164 C 
BRANCH  13  14
HETATM   14  N   UNL     1       2.634   2.217   0.948  1.00  0.00    -0.339 N 
HETATM   15  C   UNL     1       1.489   2.965   0.978  1.00  0.00     0.184 A 
HETATM   16  N   UNL     1       1.370   3.627   2.105  1.00  0.00    -0.350 N 
HETATM   17  C   UNL     1       2.474   3.277   2.842  1.00  0.00     0.060 A 
ATOM     18  HN  UNL     1       0.620   4.263   2.375  1.00  0.00     0.166 HD
HETATM   19  C   UNL     1       2.832   3.666   4.141  1.00  0.00     0.032 A 
HETATM   20  C   UNL     1       3.302   2.410   2.131  1.00  0.00     0.062 A 
HETATM   21  C   UNL     1       4.024   3.174   4.687  1.00  0.00     0.002 A 
HETATM   22  C   UNL     1       4.847   2.320   3.951  1.00  0.00     0.002 A 
HETATM   23  C   UNL     1       4.505   1.917   2.653  1.00  0.00     0.032 A 
ENDBRANCH  13  14
ENDBRANCH   1  13
TORSDOF 6
