REMARK  4 active torsions:
REMARK  status: ('A' for Active; 'I' for Inactive)
REMARK    1  A    between atoms: C_10  and  C_11 
REMARK    2  A    between atoms: C_11  and  O_12 
REMARK    3  A    between atoms: C_11  and  C_13 
REMARK    4  A    between atoms: C_13  and  O_15 
ROOT
HETATM    1  C   UNL     2       1.001   0.590   0.582  1.00  0.00     0.050 C 
HETATM    2  C   UNL     2       2.488   0.361   0.550  1.00  0.00    -0.036 A 
HETATM    3  C   UNL     2       3.345   1.466   0.421  1.00  0.00     0.010 A 
HETATM    4  C   UNL     2       4.727   1.293   0.394  1.00  0.00     0.018 A 
HETATM    5  C   UNL     2       5.254   0.010   0.508  1.00  0.00     0.088 A 
HETATM    6  N   UNL     2       4.425  -1.055   0.629  1.00  0.00    -0.366 N 
ATOM      7  HN  UNL     2       4.835  -1.985   0.712  1.00  0.00     0.165 HD
HETATM    8  C   UNL     2       3.063  -0.936   0.644  1.00  0.00     0.054 A 
ENDROOT
BRANCH   8   9
HETATM    9  C   UNL     2       2.243  -2.215   0.703  1.00  0.00     0.265 C 
BRANCH   9  10
HETATM   10  O   UNL     2       2.608  -3.036  -0.380  1.00  0.00    -0.379 OA
HETATM   11  H   UNL     2       3.537  -3.354  -0.226  1.00  0.00     0.211 HD
ENDBRANCH   9  10
BRANCH   9  12
HETATM   12  C   UNL     2       2.349  -2.993   2.001  1.00  0.00     0.176 C 
HETATM   13  O   UNL     2       1.787  -4.075   2.084  1.00  0.00    -0.648 OA
BRANCH  12  14
HETATM   14  O   UNL     2       3.005  -2.523   3.087  1.00  0.00    -0.774 OA
HETATM   15  H   UNL     2       3.397  -1.642   3.126  1.00  0.00     0.167 HD
ENDBRANCH  12  14
ENDBRANCH   9  12
ENDBRANCH   8   9
TORSDOF 4
