REMARK  5 active torsions:
REMARK  status: ('A' for Active; 'I' for Inactive)
REMARK    1  A    between atoms: O_2  and  C_3 
REMARK    2  A    between atoms: C_9  and  N_10 
REMARK       I    between atoms: N_10  and  C_11 
REMARK       I    between atoms: C_11  and  N_13 
REMARK    3  A    between atoms: N_13  and  C_14 
REMARK    4  A    between atoms: C_14  and  C_15 
REMARK    5  A    between atoms: C_15  and  N_16 
ROOT
HETATM    1  N   UNL     1       1.424  -2.893   0.271  1.00  0.00    -0.305 N 
HETATM    2  C   UNL     1       0.837  -1.831   0.929  1.00  0.00     0.320 C 
HETATM    3  O   UNL     1       1.405  -0.790   1.244  1.00  0.00    -0.247 OA
HETATM    4  N   UNL     1      -0.501  -2.045   1.212  1.00  0.00    -0.341 N 
HETATM    5  H   UNL     1       1.065  -3.817   0.475  1.00  0.00     0.171 HD
HETATM    6  H   UNL     1      -0.988  -2.576   0.505  1.00  0.00     0.164 HD
ENDROOT
BRANCH   1   7
HETATM    7  C   UNL     1       2.721  -2.849  -0.319  1.00  0.00     0.087 A 
HETATM    8  C   UNL     1       3.450  -4.021  -0.564  1.00  0.00     0.169 A 
HETATM    9  N   UNL     1       4.684  -4.046  -1.131  1.00  0.00    -0.345 N 
HETATM   10  C   UNL     1       5.231  -2.860  -1.466  1.00  0.00     0.090 A 
ATOM     11  HN  UNL     1       5.176  -4.924  -1.296  1.00  0.00     0.167 HD
HETATM   12  C   UNL     1       4.596  -1.648  -1.274  1.00  0.00     0.019 A 
HETATM   13  C   UNL     1       3.326  -1.649  -0.703  1.00  0.00     0.035 A 
BRANCH   8  14
HETATM   14  O   UNL     1       2.876  -5.230  -0.202  1.00  0.00    -0.339 OA
HETATM   15  C   UNL     1       3.848  -6.278  -0.133  1.00  0.00     0.211 C 
ENDBRANCH   8  14
ENDBRANCH   1   7
BRANCH   4  16
HETATM   16  C   UNL     1      -1.230  -0.922   1.807  1.00  0.00     0.154 C 
BRANCH  16  17
HETATM   17  C   UNL     1      -2.689  -1.230   2.220  1.00  0.00     0.292 C 
BRANCH  17  18
HETATM   18  N   UNL     1      -3.391  -0.071   2.825  1.00  0.00     0.094 N 
HETATM   19  C   UNL     1      -2.805   0.347   4.117  1.00  0.00     0.273 C 
HETATM   20  C   UNL     1      -3.066  -0.642   5.256  1.00  0.00     0.030 C 
HETATM   21  C   UNL     1      -4.557  -0.917   5.422  1.00  0.00     0.004 C 
HETATM   22  C   UNL     1      -5.212  -1.268   4.088  1.00  0.00     0.035 C 
HETATM   23  C   UNL     1      -4.854  -0.236   3.005  1.00  0.00     0.219 C 
HETATM   24  C   UNL     1      -5.620  -0.511   1.709  1.00  0.00     0.043 C 
ENDBRANCH  17  18
ENDBRANCH  16  17
ENDBRANCH   4  16
TORSDOF 5
