REMARK  6 active torsions:
REMARK  status: ('A' for Active; 'I' for Inactive)
REMARK    1  A    between atoms: C_2  and  C_3 
REMARK    2  A    between atoms: C_3  and  C_4 
REMARK    3  A    between atoms: C_8  and  N_9 
REMARK       I    between atoms: N_9  and  C_10 
REMARK       I    between atoms: C_10  and  N_12 
REMARK    4  A    between atoms: N_12  and  C_13 
REMARK    5  A    between atoms: C_13  and  C_14 
REMARK    6  A    between atoms: C_18  and  O_19 
ROOT
HETATM    1  N   UNL     1       7.497  -0.879   2.600  1.00  0.00    -0.289 N 
HETATM    2  C   UNL     1       7.411  -2.232   2.742  1.00  0.00     0.322 C 
HETATM    3  O   UNL     1       6.460  -2.843   2.260  1.00  0.00    -0.247 OA
HETATM    4  N   UNL     1       8.395  -2.830   3.466  1.00  0.00    -0.342 N 
HETATM    5  H   UNL     1       6.723  -0.423   2.135  1.00  0.00     0.172 HD
HETATM    6  H   UNL     1       9.125  -2.222   3.831  1.00  0.00     0.164 HD
ENDROOT
BRANCH   1   7
HETATM    7  C   UNL     1       8.513  -0.108   3.093  1.00  0.00     0.152 A 
HETATM    8  N   UNL     1       9.621  -0.527   3.656  1.00  0.00    -0.345 N 
HETATM    9  C   UNL     1      10.362   0.563   4.053  1.00  0.00     0.104 A 
ATOM     10  HN  UNL     1       9.890  -1.503   3.780  1.00  0.00     0.167 HD
HETATM   11  C   UNL     1       9.778   1.793   3.829  1.00  0.00     0.001 A 
HETATM   12  S   UNL     1       8.287   1.573   3.001  1.00  0.00    -0.057 SA
BRANCH  11  13
HETATM   13  C   UNL     1      10.275   3.147   4.213  1.00  0.00     0.047 C 
BRANCH  13  14
HETATM   14  C   UNL     1      11.547   3.515   3.451  1.00  0.00     0.001 C 
HETATM   15  C   UNL     1      12.012   4.915   3.810  1.00  0.00     0.005 C 
ENDBRANCH  13  14
ENDBRANCH  11  13
ENDBRANCH   1   7
BRANCH   4  16
HETATM   16  C   UNL     1       8.421  -4.219   3.845  1.00  0.00     0.129 C 
BRANCH  16  17
HETATM   17  C   UNL     1       7.637  -4.492   5.144  1.00  0.00     0.006 C 
HETATM   18  C   UNL     1       8.129  -3.666   6.350  1.00  0.00     0.006 C 
HETATM   19  C   UNL     1       9.505  -4.096   6.855  1.00  0.00     0.003 C 
HETATM   20  C   UNL     1       9.558  -5.591   7.149  1.00  0.00     0.032 C 
HETATM   21  C   UNL     1       9.072  -6.431   5.968  1.00  0.00     0.118 C 
HETATM   22  C   UNL     1       7.687  -5.988   5.491  1.00  0.00     0.038 C 
BRANCH  21  23
HETATM   23  O   UNL     1       9.029  -7.803   6.346  1.00  0.00    -0.396 OA
HETATM   24  H   UNL     1       8.415  -7.891   7.094  1.00  0.00     0.210 HD
ENDBRANCH  21  23
ENDBRANCH  16  17
ENDBRANCH   4  16
TORSDOF 6
