REMARK  8 active torsions:
REMARK  status: ('A' for Active; 'I' for Inactive)
REMARK    1  A    between atoms: C_2  and  N_4 
REMARK    2  A    between atoms: N_3  and  C_11 
REMARK    3  A    between atoms: C_16  and  C_24 
REMARK    4  A    between atoms: C_17  and  C_25 
REMARK    5  A    between atoms: C_17  and  C_26 
REMARK    6  A    between atoms: C_24  and  O_27 
REMARK    7  A    between atoms: C_25  and  O_28 
REMARK    8  A    between atoms: C_26  and  O_29 
ROOT
HETATM    1  C   UNL     1       0.434  -0.535  -0.025  1.00  0.00     0.117 A 
HETATM    2  C   UNL     1      -0.874  -1.092  -0.074  1.00  0.00     0.115 A 
HETATM    3  N   UNL     1       1.864   1.127  -0.007  1.00  0.00    -0.322 N 
HETATM    4  C   UNL     1       0.525   0.849  -0.084  1.00  0.00     0.140 A 
HETATM    5  N   UNL     1       1.703  -1.082   0.119  1.00  0.00    -0.346 N 
ATOM      6  HN  UNL     1       1.942  -2.069   0.217  1.00  0.00     0.167 HD
HETATM    7  C   UNL     1       2.535  -0.057   0.102  1.00  0.00     0.185 A 
HETATM    8  N   UNL     1      -1.907  -0.207  -0.220  1.00  0.00    -0.341 N 
ATOM      9  HN  UNL     1      -2.864  -0.551  -0.302  1.00  0.00     0.167 HD
HETATM   10  N   UNL     1      -0.480   1.736  -0.188  1.00  0.00    -0.336 N 
ATOM     11  HN  UNL     1      -0.356   2.748  -0.212  1.00  0.00     0.168 HD
HETATM   12  C   UNL     1      -1.664   1.116  -0.256  1.00  0.00     0.183 A 
ENDROOT
BRANCH   2  13
HETATM   13  N   UNL     1      -1.193  -2.448   0.080  1.00  0.00    -0.258 NA
HETATM   14  C   UNL     1      -2.553  -2.726   0.593  1.00  0.00     0.065 C 
HETATM   15  C   UNL     1      -2.457  -2.326   2.088  1.00  0.00     0.028 C 
HETATM   16  C   UNL     1      -2.567  -4.265   0.528  1.00  0.00     0.022 C 
HETATM   17  C   UNL     1      -0.961  -2.579   2.404  1.00  0.00     0.029 C 
HETATM   18  C   UNL     1      -0.455  -3.233   1.092  1.00  0.00     0.071 C 
HETATM   19  C   UNL     1      -1.112  -4.621   0.879  1.00  0.00     0.022 C 
BRANCH  17  20
HETATM   20  C   UNL     1      -0.719  -3.335   3.696  1.00  0.00     0.170 C 
BRANCH  20  21
HETATM   21  O   UNL     1      -1.199  -2.564   4.795  1.00  0.00    -0.400 OA
HETATM   22  H   UNL     1      -0.848  -1.661   4.703  1.00  0.00     0.209 HD
ENDBRANCH  20  21
ENDBRANCH  17  20
ENDBRANCH   2  13
BRANCH   3  23
HETATM   23  C   UNL     1       2.385   2.466  -0.071  1.00  0.00     0.094 C 
HETATM   24  C   UNL     1       3.334   2.701  -1.286  1.00  0.00     0.039 C 
HETATM   25  C   UNL     1       4.129   3.700  -0.379  1.00  0.00     0.006 C 
HETATM   26  C   UNL     1       3.630   2.793   0.804  1.00  0.00     0.039 C 
BRANCH  25  27
HETATM   27  C   UNL     1       5.635   3.687  -0.650  1.00  0.00     0.175 C 
BRANCH  27  28
HETATM   28  O   UNL     1       6.335   4.285   0.435  1.00  0.00    -0.400 OA
HETATM   29  H   UNL     1       5.967   5.186   0.549  1.00  0.00     0.209 HD
ENDBRANCH  27  28
ENDBRANCH  25  27
BRANCH  25  30
HETATM   30  C   UNL     1       3.571   5.132  -0.423  1.00  0.00     0.175 C 
BRANCH  30  31
HETATM   31  O   UNL     1       4.039   5.862   0.706  1.00  0.00    -0.400 OA
HETATM   32  H   UNL     1       3.489   5.604   1.472  1.00  0.00     0.209 HD
ENDBRANCH  30  31
ENDBRANCH  25  30
ENDBRANCH   3  23
TORSDOF 8
