REMARK  3 active torsions:
REMARK  status: ('A' for Active; 'I' for Inactive)
REMARK    1  A    between atoms: N_5  and  C_6 
REMARK    2  A    between atoms: C_6  and  C_7 
REMARK       I    between atoms: C_7  and  N_9 
REMARK    3  A    between atoms: N_9  and  C_10 
ROOT
HETATM    1  C   UNL     1       8.831  -3.154   4.415  1.00  0.00     0.070 C 
HETATM    2  C   UNL     1       7.780  -2.699   3.424  1.00  0.00     0.029 A 
HETATM    3  N   UNL     1       7.823  -3.229   2.244  1.00  0.00    -0.299 N 
ATOM      4  HN  UNL     1       8.543  -3.911   2.006  1.00  0.00     0.187 HD
HETATM    5  N   UNL     1       6.883  -2.856   1.321  1.00  0.00    -0.247 N 
HETATM    6  C   UNL     1       5.865  -1.957   1.581  1.00  0.00     0.283 A 
HETATM    7  O   UNL     1       4.985  -1.696   0.762  1.00  0.00    -0.265 OA
HETATM    8  C   UNL     1       5.870  -1.331   2.928  1.00  0.00     0.121 A 
HETATM    9  C   UNL     1       4.863  -0.360   3.189  1.00  0.00     0.105 C 
HETATM   10  N   UNL     1       4.067   0.437   3.458  1.00  0.00    -0.191 NA
HETATM   11  C   UNL     1       6.780  -1.681   3.855  1.00  0.00    -0.012 A 
HETATM   12  C   UNL     1       6.864  -1.143   5.254  1.00  0.00     0.052 C 
ENDROOT
BRANCH   5  13
HETATM   13  C   UNL     1       7.006  -3.459  -0.005  1.00  0.00     0.255 C 
BRANCH  13  14
HETATM   14  C   UNL     1       6.292  -4.803  -0.117  1.00  0.00     0.238 C 
HETATM   15  O   UNL     1       6.902  -5.809  -0.480  1.00  0.00    -0.272 OA
HETATM   16  N   UNL     1       4.925  -4.788   0.105  1.00  0.00    -0.350 N 
HETATM   17  H   UNL     1       4.494  -3.896   0.331  1.00  0.00     0.163 HD
BRANCH  16  18
HETATM   18  C   UNL     1       4.073  -5.989   0.048  1.00  0.00     0.034 C 
HETATM   19  C   UNL     1       4.509  -7.016   1.124  1.00  0.00     0.035 C 
HETATM   20  C   UNL     1       3.608  -8.260   1.092  1.00  0.00    -0.012 C 
HETATM   21  C   UNL     1       3.686  -8.907  -0.302  1.00  0.00     0.009 C 
HETATM   22  C   UNL     1       2.159  -7.840   1.380  1.00  0.00     0.009 C 
HETATM   23  C   UNL     1       3.206  -7.914  -1.373  1.00  0.00    -0.012 C 
HETATM   24  C   UNL     1       1.757  -7.505  -1.070  1.00  0.00     0.009 C 
HETATM   25  C   UNL     1       4.105  -6.664  -1.349  1.00  0.00     0.035 C 
HETATM   26  C   UNL     1       1.683  -6.840   0.314  1.00  0.00    -0.012 C 
HETATM   27  C   UNL     1       2.595  -5.598   0.334  1.00  0.00     0.035 C 
ENDBRANCH  16  18
ENDBRANCH  13  14
ENDBRANCH   5  13
TORSDOF 3
