REMARK  4 active torsions:
REMARK  status: ('A' for Active; 'I' for Inactive)
REMARK    1  A    between atoms: C_2  and  O_3 
REMARK    2  A    between atoms: O_3  and  C_4 
REMARK    3  A    between atoms: C_10  and  N_11 
REMARK       I    between atoms: N_11  and  C_12 
REMARK       I    between atoms: C_12  and  N_14 
REMARK    4  A    between atoms: N_14  and  C_15 
REMARK       I    between atoms: N_18  and  C_21 
ROOT
HETATM    1  N   UNL     1       4.327  -2.280   1.422  1.00  0.00    -0.305 N 
HETATM    2  C   UNL     1       2.993  -2.446   1.106  1.00  0.00     0.321 C 
HETATM    3  O   UNL     1       2.061  -1.849   1.639  1.00  0.00    -0.247 OA
HETATM    4  N   UNL     1       2.778  -3.325   0.061  1.00  0.00    -0.338 N 
HETATM    5  H   UNL     1       4.982  -3.003   1.153  1.00  0.00     0.171 HD
HETATM    6  H   UNL     1       3.365  -4.146   0.089  1.00  0.00     0.164 HD
ENDROOT
BRANCH   1   7
HETATM    7  C   UNL     1       4.818  -1.304   2.333  1.00  0.00     0.087 C 
HETATM    8  C   UNL     1       6.094  -1.402   2.897  1.00  0.00     0.169 C 
HETATM    9  N   UNL     1       6.556  -0.579   3.875  1.00  0.00    -0.345 N 
HETATM   10  C   UNL     1       5.771   0.453   4.233  1.00  0.00     0.090 C 
ATOM     11  HN  UNL     1       7.460  -0.737   4.319  1.00  0.00     0.167 HD
HETATM   12  C   UNL     1       4.553   0.718   3.644  1.00  0.00     0.019 C 
HETATM   13  C   UNL     1       4.073  -0.179   2.690  1.00  0.00     0.035 C 
BRANCH   8  14
HETATM   14  O   UNL     1       6.967  -2.357   2.396  1.00  0.00    -0.334 OA
BRANCH  14  15
HETATM   15  C   UNL     1       8.332  -1.998   2.675  1.00  0.00     0.173 C 
HETATM   16  C   UNL     1       9.242  -2.663   1.662  1.00  0.00     0.034 C 
ENDBRANCH  14  15
ENDBRANCH   8  14
ENDBRANCH   1   7
BRANCH   4  17
HETATM   17  C   UNL     1       1.412  -3.497  -0.463  1.00  0.00     0.089 C 
HETATM   18  C   UNL     1       1.337  -4.590  -1.536  1.00  0.00     0.045 C 
HETATM   19  C   UNL     1       1.989  -4.178  -2.860  1.00  0.00     0.127 C 
HETATM   20  N   UNL     1       1.539  -2.862  -3.317  1.00  0.00    -0.352 N 
HETATM   21  C   UNL     1       1.608  -1.805  -2.310  1.00  0.00     0.127 C 
HETATM   22  C   UNL     1       1.297  -2.476  -4.627  1.00  0.00     0.215 C 
HETATM   23  C   UNL     1       0.836  -2.202  -1.061  1.00  0.00     0.045 C 
HETATM   24  O   UNL     1       1.012  -1.312  -4.925  1.00  0.00    -0.274 OA
HETATM   25  C   UNL     1       1.352  -3.493  -5.738  1.00  0.00     0.117 C 
ENDBRANCH   4  17
TORSDOF 4
