REMARK  7 active torsions:
REMARK  status: ('A' for Active; 'I' for Inactive)
REMARK    1  A    between atoms: C_2  and  C_4 
REMARK    2  A    between atoms: C_4  and  N_5 
REMARK       I    between atoms: N_5  and  C_6 
REMARK    3  A    between atoms: C_6  and  C_8 
REMARK    4  A    between atoms: C_8  and  N_9 
REMARK    5  A    between atoms: N_9  and  C_10 
REMARK    6  A    between atoms: C_10  and  C_11 
REMARK    7  A    between atoms: C_11  and  N_12 
ROOT
HETATM    1  N   UNL     1       7.304   1.872   3.574  1.00  0.00     0.093 N 
HETATM    2  H   UNL     1       7.045   1.358   4.421  1.00  0.00     0.316 HD
ENDROOT
BRANCH   1   3
HETATM    3  C   UNL     1       6.720   1.134   2.426  1.00  0.00     0.371 C 
BRANCH   3   4
HETATM    4  C   UNL     1       5.192   1.102   2.522  1.00  0.00     0.245 C 
HETATM    5  N   UNL     1       4.654   2.217   3.124  1.00  0.00    -0.359 N 
HETATM    6  H   UNL     1       5.317   2.840   3.576  1.00  0.00     0.162 HD
HETATM    7  O   UNL     1       4.524   0.192   2.042  1.00  0.00    -0.272 OA
BRANCH   5   8
HETATM    8  C   UNL     1       3.233   2.391   3.317  1.00  0.00     0.126 C 
BRANCH   8   9
HETATM    9  C   UNL     1       2.714   1.687   4.580  1.00  0.00    -0.005 C 
HETATM   10  C   UNL     1       3.332   2.280   5.847  1.00  0.00     0.011 C 
HETATM   11  C   UNL     1       1.190   1.791   4.643  1.00  0.00     0.011 C 
ENDBRANCH   8   9
ENDBRANCH   5   8
ENDBRANCH   3   4
ENDBRANCH   1   3
BRANCH   1  12
HETATM   12  C   UNL     1       8.779   1.891   3.494  1.00  0.00     0.291 C 
BRANCH  12  13
HETATM   13  C   UNL     1       9.328   2.694   2.312  1.00  0.00     0.178 C 
BRANCH  13  14
HETATM   14  N   UNL     1      10.779   2.726   2.310  1.00  0.00    -0.302 N 
HETATM   15  C   UNL     1      11.578   3.701   2.830  1.00  0.00     0.111 A 
HETATM   16  C   UNL     1      12.869   3.331   2.530  1.00  0.00     0.037 A 
HETATM   17  C   UNL     1      12.738   2.117   1.832  1.00  0.00     0.108 A 
HETATM   18  N   UNL     1      11.465   1.737   1.706  1.00  0.00    -0.310 N 
ATOM     19  HN  UNL     1      11.099   0.897   1.258  1.00  0.00     0.186 HD
ENDBRANCH  13  14
ENDBRANCH  12  13
ENDBRANCH   1  12
TORSDOF 7
