REMARK  6 active torsions:
REMARK  status: ('A' for Active; 'I' for Inactive)
REMARK    1  A    between atoms: C_2  and  C_4 
REMARK    2  A    between atoms: C_4  and  C_5 
REMARK    3  A    between atoms: C_4  and  N_16 
REMARK    4  A    between atoms: C_5  and  N_6 
REMARK       I    between atoms: N_6  and  C_7 
REMARK    5  A    between atoms: C_7  and  C_9 
REMARK    6  A    between atoms: C_9  and  N_10 
ROOT
HETATM    1  C   UNL     1       2.249  -1.234  -1.989  1.00  0.00     0.159 C 
ENDROOT
BRANCH   1   2
HETATM    2  C   UNL     1       3.039  -1.249  -0.627  1.00  0.00     0.244 C 
BRANCH   2   3
HETATM    3  C   UNL     1       2.366  -0.207   0.355  1.00  0.00     0.012 C 
HETATM    4  C   UNL     1       2.452   1.245  -0.131  1.00  0.00     0.012 C 
HETATM    5  C   UNL     1       0.904  -0.539   0.692  1.00  0.00     0.012 C 
ENDBRANCH   2   3
BRANCH   2   6
HETATM    6  N   UNL     1       4.521  -1.001  -0.763  1.00  0.00     0.095 N 
HETATM    7  C   UNL     1       5.253  -1.899  -1.669  1.00  0.00     0.273 C 
HETATM    8  C   UNL     1       5.292  -3.347  -1.165  1.00  0.00     0.034 C 
HETATM    9  C   UNL     1       5.997  -3.440   0.197  1.00  0.00    -0.015 C 
HETATM   10  C   UNL     1       7.517  -3.327   0.032  1.00  0.00     0.010 C 
HETATM   11  C   UNL     1       5.440  -2.377   1.161  1.00  0.00     0.034 C 
HETATM   12  C   UNL     1       5.273  -0.993   0.513  1.00  0.00     0.273 C 
ENDBRANCH   2   6
ENDBRANCH   1   2
BRANCH   1  13
HETATM   13  N   UNL     1       2.438  -2.381  -2.875  1.00  0.00    -0.358 N 
HETATM   14  C   UNL     1       1.600  -2.574  -3.956  1.00  0.00     0.237 C 
HETATM   15  O   UNL     1       0.503  -2.031  -4.051  1.00  0.00    -0.272 OA
HETATM   16  H   UNL     1       3.364  -2.765  -2.952  1.00  0.00     0.162 HD
BRANCH  14  17
HETATM   17  C   UNL     1       2.124  -3.527  -5.007  1.00  0.00     0.249 C 
BRANCH  17  18
HETATM   18  N   UNL     1       1.978  -2.972  -6.331  1.00  0.00    -0.264 N 
HETATM   19  C   UNL     1       0.841  -2.664  -7.010  1.00  0.00     0.213 A 
HETATM   20  N   UNL     1       1.177  -2.252  -8.209  1.00  0.00    -0.281 N 
HETATM   21  N   UNL     1       2.550  -2.317  -8.262  1.00  0.00    -0.008 NA
ATOM     22  HN  UNL     1       0.548  -1.946  -8.951  1.00  0.00     0.184 HD
HETATM   23  N   UNL     1       3.047  -2.764  -7.117  1.00  0.00    -0.005 NA
ENDBRANCH  17  18
ENDBRANCH  14  17
ENDBRANCH   1  13
TORSDOF 6
