REMARK  6 active torsions:
REMARK  status: ('A' for Active; 'I' for Inactive)
REMARK       I    between atoms: N_2  and  C_3 
REMARK    1  A    between atoms: C_3  and  C_5 
REMARK    2  A    between atoms: C_5  and  C_6 
REMARK    3  A    between atoms: C_5  and  N_10 
REMARK    4  A    between atoms: C_6  and  C_7 
REMARK       I    between atoms: N_10  and  C_11 
REMARK    5  A    between atoms: C_11  and  C_13 
REMARK    6  A    between atoms: C_13  and  N_14 
ROOT
HETATM    1  N   UNL     1       5.367   1.382   2.105  1.00  0.00    -0.346 N 
HETATM    2  C   UNL     1       6.608   1.077   2.614  1.00  0.00     0.236 C 
HETATM    3  O   UNL     1       7.303   0.156   2.190  1.00  0.00    -0.272 OA
HETATM    4  H   UNL     1       4.799   2.101   2.547  1.00  0.00     0.163 HD
ENDROOT
BRANCH   1   5
HETATM    5  C   UNL     1       4.728   0.651   1.007  1.00  0.00     0.177 C 
BRANCH   5   6
HETATM    6  C   UNL     1       3.190   0.684   1.247  1.00  0.00     0.240 C 
HETATM    7  N   UNL     1       2.428   0.041   0.292  1.00  0.00    -0.364 N 
HETATM    8  C   UNL     1       0.992  -0.055   0.401  1.00  0.00     0.149 C 
HETATM    9  H   UNL     1       2.884  -0.494  -0.435  1.00  0.00     0.161 HD
HETATM   10  O   UNL     1       2.696   1.232   2.232  1.00  0.00    -0.271 OA
ENDBRANCH   5   6
BRANCH   5  11
HETATM   11  C   UNL     1       5.071   1.269  -0.365  1.00  0.00     0.038 C 
BRANCH  11  12
HETATM   12  C   UNL     1       6.568   1.309  -0.730  1.00  0.00    -0.020 C 
HETATM   13  C   UNL     1       7.206  -0.080  -0.833  1.00  0.00     0.009 C 
HETATM   14  C   UNL     1       6.768   2.050  -2.054  1.00  0.00     0.009 C 
ENDBRANCH  11  12
ENDBRANCH   5  11
ENDBRANCH   1   5
BRANCH   2  15
HETATM   15  C   UNL     1       7.085   1.985   3.749  1.00  0.00     0.235 C 
BRANCH  15  16
HETATM   16  N   UNL     1       8.300   2.733   3.415  1.00  0.00    -0.301 N 
HETATM   17  C   UNL     1       9.543   2.184   3.677  1.00  0.00     0.102 C 
HETATM   18  C   UNL     1      10.669   2.883   3.509  1.00  0.00     0.092 C 
HETATM   19  C   UNL     1      10.576   4.274   3.040  1.00  0.00     0.250 C 
HETATM   20  O   UNL     1      11.565   4.997   3.005  1.00  0.00    -0.268 OA
HETATM   21  N   UNL     1       9.331   4.692   2.672  1.00  0.00    -0.275 N 
HETATM   22  C   UNL     1       8.162   4.006   2.873  1.00  0.00     0.329 C 
HETATM   23  H   UNL     1       9.246   5.645   2.349  1.00  0.00     0.173 HD
HETATM   24  O   UNL     1       7.079   4.523   2.607  1.00  0.00    -0.246 OA
ENDBRANCH  15  16
ENDBRANCH   2  15
TORSDOF 6
