REMARK  4 active torsions:
REMARK  status: ('A' for Active; 'I' for Inactive)
REMARK    1  A    between atoms: O_2  and  C_3 
REMARK       I    between atoms: N_6  and  C_9 
REMARK       I    between atoms: C_9  and  N_11 
REMARK    2  A    between atoms: N_11  and  C_12 
REMARK    3  A    between atoms: C_12  and  C_13 
REMARK    4  A    between atoms: C_13  and  C_14 
ROOT
HETATM    1  C   UNL     1       3.035  -0.969   0.126  1.00  0.00     0.123 C 
HETATM    2  C   UNL     1       4.300  -0.545  -0.624  1.00  0.00     0.052 C 
HETATM    3  C   UNL     1       4.063  -0.615  -2.130  1.00  0.00     0.130 C 
HETATM    4  N   UNL     1       3.675  -1.972  -2.518  1.00  0.00    -0.334 N 
HETATM    5  C   UNL     1       2.508  -2.510  -1.819  1.00  0.00     0.130 C 
HETATM    6  C   UNL     1       2.649  -2.390  -0.302  1.00  0.00     0.052 C 
HETATM    7  C   UNL     1       4.302  -2.748  -3.478  1.00  0.00     0.318 C 
HETATM    8  O   UNL     1       4.035  -3.930  -3.671  1.00  0.00    -0.247 OA
HETATM    9  N   UNL     1       5.264  -2.092  -4.207  1.00  0.00    -0.343 N 
HETATM   10  H   UNL     1       5.003  -1.146  -4.434  1.00  0.00     0.164 HD
ENDROOT
BRANCH   9  11
HETATM   11  C   UNL     1       5.989  -2.794  -5.258  1.00  0.00     0.130 C 
BRANCH  11  12
HETATM   12  C   UNL     1       7.111  -1.928  -5.821  1.00  0.00     0.076 C 
BRANCH  12  13
HETATM   13  C   UNL     1       7.876  -2.631  -6.910  1.00  0.00     0.010 A 
HETATM   14  C   UNL     1       9.002  -3.393  -6.608  1.00  0.00     0.025 A 
HETATM   15  C   UNL     1       9.689  -4.013  -7.646  1.00  0.00     0.003 A 
HETATM   16  C   UNL     1       9.238  -3.861  -8.951  1.00  0.00     0.017 A 
HETATM   17  C   UNL     1       8.104  -3.098  -9.162  1.00  0.00     0.088 A 
HETATM   18  N   UNL     1       7.415  -2.483  -8.175  1.00  0.00    -0.369 N 
ATOM     19  HN  UNL     1       6.582  -1.930  -8.375  1.00  0.00     0.165 HD
ENDBRANCH  12  13
ENDBRANCH  11  12
ENDBRANCH   9  11
BRANCH   1  20
HETATM   20  O   UNL     1       2.039   0.010  -0.184  1.00  0.00    -0.391 OA
HETATM   21  C   UNL     1       0.827  -0.120   0.539  1.00  0.00     0.202 C 
ENDBRANCH   1  20
TORSDOF 4
