REMARK  6 active torsions:
REMARK  status: ('A' for Active; 'I' for Inactive)
REMARK    1  A    between atoms: C_2  and  C_4 
REMARK    2  A    between atoms: C_4  and  N_5 
REMARK    3  A    between atoms: C_4  and  C_9 
REMARK       I    between atoms: N_5  and  C_6 
REMARK       I    between atoms: C_9  and  N_11 
REMARK    4  A    between atoms: N_11  and  C_12 
REMARK    5  A    between atoms: C_12  and  C_13 
REMARK    6  A    between atoms: C_16  and  N_20 
ROOT
HETATM    1  C   UNL     1       6.689  -2.323   1.732  1.00  0.00     0.162 C 
ENDROOT
BRANCH   1   2
HETATM    2  N   UNL     1       5.250  -2.262   1.605  1.00  0.00    -0.355 N 
HETATM    3  C   UNL     1       4.670  -1.764   0.451  1.00  0.00     0.241 C 
HETATM    4  O   UNL     1       5.334  -1.466  -0.540  1.00  0.00    -0.271 OA
HETATM    5  H   UNL     1       4.686  -2.335   2.438  1.00  0.00     0.162 HD
BRANCH   3   6
HETATM    6  C   UNL     1       3.122  -1.748   0.435  1.00  0.00     0.179 C 
BRANCH   6   7
HETATM    7  C   UNL     1       2.549  -3.182   0.553  1.00  0.00     0.009 C 
HETATM    8  C   UNL     1       1.016  -3.186   0.526  1.00  0.00     0.012 C 
HETATM    9  C   UNL     1       3.067  -4.080  -0.577  1.00  0.00     0.012 C 
ENDBRANCH   6   7
BRANCH   6  10
HETATM   10  N   UNL     1       2.641  -0.887   1.524  1.00  0.00    -0.348 N 
HETATM   11  C   UNL     1       2.473   0.465   1.330  1.00  0.00     0.214 C 
HETATM   12  O   UNL     1       2.695   1.036   0.269  1.00  0.00    -0.274 OA
HETATM   13  C   UNL     1       1.940   1.201   2.531  1.00  0.00     0.117 C 
HETATM   14  H   UNL     1       2.434  -1.292   2.427  1.00  0.00     0.163 HD
ENDBRANCH   6  10
ENDBRANCH   3   6
ENDBRANCH   1   2
BRANCH   1  15
HETATM   15  C   UNL     1       7.142  -3.462   2.597  1.00  0.00    -0.025 A 
HETATM   16  C   UNL     1       7.260  -3.336   3.977  1.00  0.00     0.014 A 
HETATM   17  C   UNL     1       7.753  -4.406   4.726  1.00  0.00     0.049 A 
HETATM   18  C   UNL     1       8.130  -5.598   4.101  1.00  0.00     0.103 A 
HETATM   19  N   UNL     1       8.003  -5.738   2.767  1.00  0.00    -0.352 N 
HETATM   20  C   UNL     1       7.511  -4.688   2.054  1.00  0.00     0.098 A 
ATOM     21  HN  UNL     1       8.268  -6.607   2.304  1.00  0.00     0.166 HD
BRANCH  18  22
HETATM   22  N   UNL     1       8.716  -6.601   4.862  1.00  0.00    -0.363 N 
HETATM   23  C   UNL     1       9.614  -7.561   4.203  1.00  0.00     0.150 C 
HETATM   24  C   UNL     1       8.958  -8.933   4.004  1.00  0.00     0.187 C 
HETATM   25  O   UNL     1       8.397  -9.431   5.231  1.00  0.00    -0.388 OA
HETATM   26  C   UNL     1       7.385  -8.528   5.698  1.00  0.00     0.187 C 
HETATM   27  C   UNL     1       7.963  -7.137   6.005  1.00  0.00     0.150 C 
ENDBRANCH  18  22
ENDBRANCH   1  15
TORSDOF 6
