REMARK  5 active torsions:
REMARK  status: ('A' for Active; 'I' for Inactive)
REMARK       I    between atoms: N_1  and  C_2 
REMARK    1  A    between atoms: C_2  and  C_4 
REMARK    2  A    between atoms: C_4  and  N_5 
REMARK    3  A    between atoms: C_8  and  N_11 
REMARK       I    between atoms: N_11  and  C_12 
REMARK       I    between atoms: C_12  and  N_14 
REMARK    4  A    between atoms: N_14  and  C_15 
REMARK    5  A    between atoms: C_18  and  N_22 
ROOT
HETATM    1  N   UNL     1       7.291   0.042  -3.642  1.00  0.00    -0.338 N 
HETATM    2  C   UNL     1       8.009   1.120  -4.119  1.00  0.00     0.321 C 
HETATM    3  O   UNL     1       7.482   2.113  -4.603  1.00  0.00    -0.247 OA
HETATM    4  N   UNL     1       9.367   0.885  -4.060  1.00  0.00    -0.308 N 
HETATM    5  H   UNL     1       7.685  -0.392  -2.818  1.00  0.00     0.164 HD
HETATM    6  H   UNL     1       9.617  -0.090  -4.140  1.00  0.00     0.170 HD
ENDROOT
BRANCH   1   7
HETATM    7  C   UNL     1       5.835   0.015  -3.799  1.00  0.00     0.089 C 
HETATM    8  C   UNL     1       5.112   0.907  -2.786  1.00  0.00     0.055 C 
HETATM    9  C   UNL     1       5.054   0.264  -1.401  1.00  0.00     0.275 C 
HETATM   10  N   UNL     1       4.476  -1.093  -1.382  1.00  0.00     0.097 N 
HETATM   11  C   UNL     1       5.187  -1.965  -2.329  1.00  0.00     0.275 C 
HETATM   12  C   UNL     1       5.291  -1.415  -3.754  1.00  0.00     0.055 C 
BRANCH  10  13
HETATM   13  C   UNL     1       3.015  -1.093  -1.637  1.00  0.00     0.374 C 
BRANCH  13  14
HETATM   14  C   UNL     1       2.259  -0.384  -0.510  1.00  0.00     0.243 C 
HETATM   15  N   UNL     1       2.411  -0.946   0.727  1.00  0.00    -0.369 N 
HETATM   16  H   UNL     1       2.029  -0.428   1.508  1.00  0.00     0.159 HD
HETATM   17  H   UNL     1       3.218  -1.534   0.889  1.00  0.00     0.159 HD
HETATM   18  O   UNL     1       1.548   0.598  -0.684  1.00  0.00    -0.272 OA
ENDBRANCH  13  14
ENDBRANCH  10  13
ENDBRANCH   1   7
BRANCH   4  19
HETATM   19  C   UNL     1      10.305   1.830  -4.533  1.00  0.00     0.051 A 
HETATM   20  C   UNL     1      11.410   1.398  -5.252  1.00  0.00     0.035 A 
HETATM   21  C   UNL     1      12.320   2.340  -5.743  1.00  0.00     0.051 A 
HETATM   22  C   UNL     1      12.169   3.697  -5.450  1.00  0.00     0.103 A 
HETATM   23  N   UNL     1      11.091   4.111  -4.747  1.00  0.00    -0.350 N 
HETATM   24  C   UNL     1      10.187   3.195  -4.321  1.00  0.00     0.119 A 
ATOM     25  HN  UNL     1      10.959   5.101  -4.540  1.00  0.00     0.166 HD
BRANCH  22  26
HETATM   26  N   UNL     1      13.080   4.648  -5.884  1.00  0.00    -0.367 N 
HETATM   27  C   UNL     1      12.914   6.013  -5.377  1.00  0.00     0.124 C 
HETATM   28  C   UNL     1      14.332   6.566  -5.235  1.00  0.00     0.021 C 
HETATM   29  C   UNL     1      15.218   5.334  -5.191  1.00  0.00     0.021 C 
HETATM   30  C   UNL     1      14.492   4.337  -6.083  1.00  0.00     0.124 C 
ENDBRANCH  22  26
ENDBRANCH   4  19
TORSDOF 5
