REMARK  4 active torsions:
REMARK  status: ('A' for Active; 'I' for Inactive)
REMARK    1  A    between atoms: N_4  and  C_5 
REMARK    2  A    between atoms: C_5  and  C_6 
REMARK    3  A    between atoms: C_6  and  N_7 
REMARK       I    between atoms: N_7  and  C_8 
REMARK       I    between atoms: C_8  and  N_10 
REMARK    4  A    between atoms: N_10  and  C_11 
ROOT
HETATM    1  N   UNL     1       2.976   4.051  -4.197  1.00  0.00    -0.341 N 
HETATM    2  C   UNL     1       2.418   4.310  -5.403  1.00  0.00     0.321 C 
HETATM    3  O   UNL     1       1.432   3.721  -5.840  1.00  0.00    -0.247 OA
HETATM    4  N   UNL     1       3.047   5.247  -6.175  1.00  0.00    -0.294 N 
HETATM    5  H   UNL     1       3.736   4.673  -3.930  1.00  0.00     0.164 HD
HETATM    6  H   UNL     1       2.640   5.323  -7.094  1.00  0.00     0.172 HD
ENDROOT
BRANCH   1   7
HETATM    7  C   UNL     1       2.498   3.079  -3.247  1.00  0.00     0.154 C 
BRANCH   7   8
HETATM    8  C   UNL     1       3.105   1.679  -3.470  1.00  0.00     0.292 C 
BRANCH   8   9
HETATM    9  N   UNL     1       2.602   0.673  -2.515  1.00  0.00     0.095 N 
HETATM   10  C   UNL     1       2.958   0.984  -1.117  1.00  0.00     0.303 C 
HETATM   11  C   UNL     1       2.406  -0.074  -0.139  1.00  0.00     0.146 C 
HETATM   12  C   UNL     1       0.883  -0.029  -0.020  1.00  0.00     0.041 C 
HETATM   13  O   UNL     1       2.872  -1.387  -0.487  1.00  0.00    -0.378 OA
HETATM   14  C   UNL     1       2.578  -1.733  -1.852  1.00  0.00     0.146 C 
HETATM   15  C   UNL     1       3.128  -0.673  -2.835  1.00  0.00     0.303 C 
HETATM   16  C   UNL     1       3.199  -3.099  -2.111  1.00  0.00     0.041 C 
ENDBRANCH   8   9
ENDBRANCH   7   8
ENDBRANCH   1   7
BRANCH   4  17
HETATM   17  C   UNL     1       4.205   5.981  -5.878  1.00  0.00     0.114 A 
HETATM   18  N   UNL     1       4.657   5.971  -4.598  1.00  0.00    -0.352 N 
HETATM   19  C   UNL     1       5.809   6.613  -4.319  1.00  0.00     0.089 A 
ATOM     20  HN  UNL     1       4.137   5.489  -3.865  1.00  0.00     0.166 HD
HETATM   21  C   UNL     1       6.570   7.251  -5.272  1.00  0.00     0.018 A 
HETATM   22  C   UNL     1       6.094   7.274  -6.578  1.00  0.00     0.012 A 
HETATM   23  C   UNL     1       4.876   6.656  -6.900  1.00  0.00    -0.018 A 
HETATM   24  C   UNL     1       4.374   6.709  -8.313  1.00  0.00     0.052 C 
ENDBRANCH   4  17
TORSDOF 4
