REMARK  6 active torsions:
REMARK  status: ('A' for Active; 'I' for Inactive)
REMARK    1  A    between atoms: C_2  and  C_3 
REMARK    2  A    between atoms: C_3  and  N_4 
REMARK    3  A    between atoms: C_3  and  C_10 
REMARK       I    between atoms: C_10  and  N_12 
REMARK    4  A    between atoms: N_12  and  C_13 
REMARK    5  A    between atoms: C_13  and  C_14 
REMARK    6  A    between atoms: C_14  and  C_15 
ROOT
HETATM    1  C   UNL     1       4.524  -1.181   0.964  1.00  0.00     0.240 C 
HETATM    2  O   UNL     1       5.141  -0.437   1.729  1.00  0.00    -0.271 OA
HETATM    3  N   UNL     1       5.164  -1.896  -0.032  1.00  0.00    -0.359 N 
HETATM    4  H   UNL     1       4.638  -2.636  -0.469  1.00  0.00     0.162 HD
ENDROOT
BRANCH   1   5
HETATM    5  C   UNL     1       2.971  -1.233   0.919  1.00  0.00     0.178 C 
BRANCH   5   6
HETATM    6  C   UNL     1       2.415  -0.115   0.022  1.00  0.00     0.030 C 
HETATM    7  C   UNL     1       2.819   1.286   0.465  1.00  0.00     0.007 C 
ENDBRANCH   5   6
BRANCH   5   8
HETATM    8  N   UNL     1       2.545  -2.582   0.486  1.00  0.00    -0.339 N 
HETATM    9  C   UNL     1       2.142  -2.934  -0.855  1.00  0.00     0.127 C 
HETATM   10  C   UNL     1       2.016  -4.447  -0.849  1.00  0.00     0.029 C 
HETATM   11  C   UNL     1       2.578  -4.921   0.485  1.00  0.00     0.104 C 
HETATM   12  C   UNL     1       2.692  -3.678   1.319  1.00  0.00     0.220 C 
HETATM   13  O   UNL     1       2.990  -3.651   2.502  1.00  0.00    -0.273 OA
ENDBRANCH   5   8
ENDBRANCH   1   5
BRANCH   3  14
HETATM   14  C   UNL     1       6.606  -1.941  -0.148  1.00  0.00     0.130 C 
BRANCH  14  15
HETATM   15  C   UNL     1       7.226  -3.008   0.753  1.00  0.00     0.096 C 
BRANCH  15  16
HETATM   16  C   UNL     1       8.709  -3.016   0.603  1.00  0.00     0.084 A 
HETATM   17  N   UNL     1       9.378  -3.691  -0.313  1.00  0.00    -0.354 N 
HETATM   18  C   UNL     1      10.699  -3.397  -0.102  1.00  0.00     0.106 A 
ATOM     19  HN  UNL     1       8.991  -4.305  -1.030  1.00  0.00     0.166 HD
HETATM   20  C   UNL     1      10.841  -2.524   0.949  1.00  0.00     0.108 A 
HETATM   21  N   UNL     1       9.569  -2.285   1.389  1.00  0.00    -0.350 N 
HETATM   22  C   UNL     1       9.209  -1.415   2.483  1.00  0.00     0.156 C 
ENDBRANCH  15  16
ENDBRANCH  14  15
ENDBRANCH   3  14
TORSDOF 6
