REMARK  4 active torsions:
REMARK  status: ('A' for Active; 'I' for Inactive)
REMARK    1  A    between atoms: N_2  and  C_4 
REMARK    2  A    between atoms: C_4  and  C_5 
REMARK    3  A    between atoms: C_5  and  N_6 
REMARK       I    between atoms: N_6  and  C_7 
REMARK       I    between atoms: C_7  and  N_9 
REMARK    4  A    between atoms: N_9  and  C_10 
ROOT
HETATM    1  N   UNL     1       3.977  -0.889  -2.242  1.00  0.00    -0.340 N 
HETATM    2  C   UNL     1       4.575  -1.294  -3.405  1.00  0.00     0.321 C 
HETATM    3  O   UNL     1       4.686  -2.449  -3.785  1.00  0.00    -0.247 OA
HETATM    4  N   UNL     1       5.115  -0.201  -4.125  1.00  0.00    -0.293 N 
HETATM    5  H   UNL     1       3.659   0.060  -2.095  1.00  0.00     0.164 HD
HETATM    6  H   UNL     1       4.981   0.730  -3.758  1.00  0.00     0.172 HD
ENDROOT
BRANCH   1   7
HETATM    7  C   UNL     1       3.357  -1.909  -1.420  1.00  0.00     0.155 C 
BRANCH   7   8
HETATM    8  C   UNL     1       3.001  -1.508   0.065  1.00  0.00     0.043 C 
HETATM    9  C   UNL     1       2.424  -2.847   0.659  1.00  0.00     0.032 C 
HETATM   10  C   UNL     1       2.398  -3.016   2.176  1.00  0.00     0.002 C 
HETATM   11  C   UNL     1       3.697  -2.598   2.854  1.00  0.00     0.000 C 
HETATM   12  C   UNL     1       4.145  -1.230   2.377  1.00  0.00     0.002 C 
HETATM   13  C   UNL     1       4.316  -1.205   0.847  1.00  0.00     0.032 C 
BRANCH   8  14
HETATM   14  N   UNL     1       2.121  -0.297  -0.052  1.00  0.00    -0.410 N 
HETATM   15  C   UNL     1       0.747  -0.541  -0.492  1.00  0.00     0.143 C 
HETATM   16  C   UNL     1       2.108   0.701   1.015  1.00  0.00     0.143 C 
ENDBRANCH   8  14
ENDBRANCH   7   8
ENDBRANCH   1   7
BRANCH   4  17
HETATM   17  C   UNL     1       5.917  -0.357  -5.261  1.00  0.00     0.127 A 
HETATM   18  C   UNL     1       6.239  -1.521  -5.935  1.00  0.00     0.076 A 
HETATM   19  C   UNL     1       7.142  -1.144  -6.954  1.00  0.00     0.025 A 
HETATM   20  C   UNL     1       7.851  -2.020  -7.921  1.00  0.00     0.070 C 
HETATM   21  N   UNL     1       7.340   0.177  -6.967  1.00  0.00    -0.302 N 
HETATM   22  N   UNL     1       6.601   0.630  -5.937  1.00  0.00    -0.281 N 
ATOM     23  HN  UNL     1       7.918   0.718  -7.610  1.00  0.00     0.186 HD
HETATM   24  C   UNL     1       6.644   2.039  -5.634  1.00  0.00     0.179 C 
ENDBRANCH   4  17
TORSDOF 4
