REMARK  3 active torsions:
REMARK  status: ('A' for Active; 'I' for Inactive)
REMARK    1  A    between atoms: N_1  and  C_9 
REMARK    2  A    between atoms: N_2  and  C_12 
REMARK       I    between atoms: N_7  and  C_8 
REMARK    3  A    between atoms: C_8  and  C_9 
ROOT
HETATM    1  C   UNL     1      -1.518   1.866  -0.329  1.00  0.00     0.240 C 
ENDROOT
BRANCH   1   2
HETATM    2  N   UNL     1      -0.788   2.361   0.847  1.00  0.00    -0.255 N 
HETATM    3  C   UNL     1      -0.760   3.735   1.061  1.00  0.00     0.334 C 
HETATM    4  N   UNL     1      -0.218   4.147   2.284  1.00  0.00    -0.279 N 
HETATM    5  O   UNL     1      -1.162   4.546   0.230  1.00  0.00    -0.246 OA
HETATM    6  C   UNL     1       0.596   3.318   3.025  1.00  0.00     0.146 C 
HETATM    7  C   UNL     1       0.807   2.059   2.653  1.00  0.00     0.200 C 
HETATM    8  C   UNL     1       0.085   1.500   1.491  1.00  0.00     0.292 C 
HETATM    9  F   UNL     1       1.656   1.247   3.310  1.00  0.00    -0.199 F 
HETATM   10  O   UNL     1       0.288   0.334   1.146  1.00  0.00    -0.264 OA
BRANCH   4  11
HETATM   11  C   UNL     1      -0.420   5.547   2.641  1.00  0.00     0.232 C 
HETATM   12  O   UNL     1       0.154   5.876   3.922  1.00  0.00    -0.366 OA
HETATM   13  C   UNL     1      -0.592   6.983   4.461  1.00  0.00     0.170 C 
HETATM   14  C   UNL     1      -1.800   7.203   3.571  1.00  0.00     0.031 C 
HETATM   15  C   UNL     1      -1.889   5.913   2.801  1.00  0.00     0.056 C 
ENDBRANCH   4  11
ENDBRANCH   1   2
BRANCH   1  16
HETATM   16  C   UNL     1      -3.066   1.956  -0.219  1.00  0.00     0.242 C 
HETATM   17  N   UNL     1      -3.790   0.801   0.156  1.00  0.00    -0.315 N 
HETATM   18  C   UNL     1      -5.243   0.812   0.215  1.00  0.00     0.054 A 
HETATM   19  C   UNL     1      -3.162  -0.256   0.965  1.00  0.00     0.133 C 
HETATM   20  C   UNL     1      -6.027  -0.323  -0.108  1.00  0.00     0.027 A 
HETATM   21  C   UNL     1      -5.927   1.947   0.687  1.00  0.00     0.031 A 
HETATM   22  S   UNL     1      -5.432  -1.774  -0.968  1.00  0.00    -0.123 SA
HETATM   23  C   UNL     1      -7.414  -0.328   0.132  1.00  0.00     0.021 A 
HETATM   24  C   UNL     1      -4.310  -2.462   0.280  1.00  0.00     0.050 C 
HETATM   25  C   UNL     1      -3.028  -1.629   0.315  1.00  0.00     0.035 C 
HETATM   26  C   UNL     1      -4.994  -2.669   1.635  1.00  0.00     0.021 C 
HETATM   27  C   UNL     1      -8.052   0.787   0.653  1.00  0.00     0.002 A 
HETATM   28  C   UNL     1      -7.312   1.935   0.905  1.00  0.00     0.002 A 
HETATM   29  O   UNL     1      -3.609   3.029  -0.502  1.00  0.00    -0.271 OA
ENDBRANCH   1  16
TORSDOF 3
