REMARK  3 active torsions:
REMARK  status: ('A' for Active; 'I' for Inactive)
REMARK    1  A    between atoms: C_6  and  N_7 
REMARK       I    between atoms: N_7  and  C_8 
REMARK       I    between atoms: C_8  and  N_10 
REMARK    2  A    between atoms: N_10  and  C_11 
REMARK    3  A    between atoms: N_14  and  C_17 
ROOT
HETATM    1  N   UNL     1       7.468  -4.214  -0.724  1.00  0.00    -0.304 N 
HETATM    2  C   UNL     1       6.637  -5.262  -0.421  1.00  0.00     0.321 C 
HETATM    3  O   UNL     1       7.028  -6.350  -0.023  1.00  0.00    -0.247 OA
HETATM    4  N   UNL     1       5.315  -4.978  -0.624  1.00  0.00    -0.338 N 
HETATM    5  H   UNL     1       7.158  -3.286  -0.450  1.00  0.00     0.171 HD
HETATM    6  H   UNL     1       5.106  -4.212  -1.250  1.00  0.00     0.164 HD
ENDROOT
BRANCH   4   7
HETATM    7  C   UNL     1       4.248  -5.943  -0.343  1.00  0.00     0.089 C 
HETATM    8  C   UNL     1       3.978  -6.042   1.167  1.00  0.00     0.055 C 
HETATM    9  C   UNL     1       4.525  -7.304   1.828  1.00  0.00     0.275 C 
HETATM   10  N   UNL     1       4.197  -8.539   1.105  1.00  0.00     0.093 N 
HETATM   11  C   UNL     1       4.838  -8.477  -0.214  1.00  0.00     0.275 C 
HETATM   12  C   UNL     1       4.390  -7.293  -1.079  1.00  0.00     0.055 C 
BRANCH  10  13
HETATM   13  C   UNL     1       2.768  -8.875   1.071  1.00  0.00     0.223 C 
HETATM   14  C   UNL     1       2.127  -9.045   2.465  1.00  0.00     0.036 C 
HETATM   15  C   UNL     1       1.098 -10.171   2.343  1.00  0.00     0.002 C 
HETATM   16  C   UNL     1       1.077 -10.562   0.875  1.00  0.00     0.002 C 
HETATM   17  C   UNL     1       2.476 -10.221   0.393  1.00  0.00     0.036 C 
ENDBRANCH  10  13
ENDBRANCH   4   7
BRANCH   1  18
HETATM   18  C   UNL     1       8.832  -4.345  -0.916  1.00  0.00     0.105 A 
HETATM   19  C   UNL     1       9.424  -5.470  -1.352  1.00  0.00     0.037 A 
HETATM   20  C   UNL     1      10.840  -5.536  -1.595  1.00  0.00     0.020 A 
HETATM   21  C   UNL     1      11.593  -4.440  -1.449  1.00  0.00     0.094 A 
HETATM   22  N   UNL     1      11.043  -3.248  -1.021  1.00  0.00    -0.327 N 
HETATM   23  C   UNL     1      11.893  -2.083  -0.871  1.00  0.00     0.159 C 
HETATM   24  C   UNL     1       9.694  -3.129  -0.669  1.00  0.00     0.274 A 
HETATM   25  O   UNL     1       9.185  -2.112  -0.194  1.00  0.00    -0.266 OA
ENDBRANCH   1  18
TORSDOF 3
