REMARK  3 active torsions:
REMARK  status: ('A' for Active; 'I' for Inactive)
REMARK       I    between atoms: C_2  and  N_3 
REMARK       I    between atoms: C_2  and  N_10 
REMARK    1  A    between atoms: N_3  and  C_4 
REMARK    2  A    between atoms: C_4  and  C_5 
REMARK    3  A    between atoms: N_10  and  C_11 
ROOT
HETATM    1  O   UNL     1       1.985   0.820   2.098  1.00  0.00    -0.247 OA
HETATM    2  C   UNL     1       2.760   0.435   1.224  1.00  0.00     0.322 C 
HETATM    3  N   UNL     1       3.062  -0.874   1.026  1.00  0.00    -0.340 N 
HETATM    4  N   UNL     1       3.295   1.343   0.367  1.00  0.00    -0.289 N 
HETATM    5  H   UNL     1       3.759  -1.106   0.321  1.00  0.00     0.164 HD
HETATM    6  H   UNL     1       2.943   2.283   0.454  1.00  0.00     0.172 HD
ENDROOT
BRANCH   3   7
HETATM    7  C   UNL     1       2.404  -1.966   1.715  1.00  0.00     0.156 C 
BRANCH   7   8
HETATM    8  C   UNL     1       3.394  -2.936   2.355  1.00  0.00     0.139 C 
HETATM    9  C   UNL     1       4.321  -2.316   3.388  1.00  0.00     0.035 C 
HETATM   10  C   UNL     1       5.639  -3.035   3.198  1.00  0.00     0.029 C 
HETATM   11  C   UNL     1       5.411  -3.985   2.044  1.00  0.00     0.168 C 
HETATM   12  O   UNL     1       4.250  -3.516   1.351  1.00  0.00    -0.384 OA
ENDBRANCH   7   8
ENDBRANCH   3   7
BRANCH   4  13
HETATM   13  C   UNL     1       4.159   1.071  -0.651  1.00  0.00     0.152 A 
HETATM   14  N   UNL     1       4.826  -0.036  -0.878  1.00  0.00    -0.346 N 
HETATM   15  C   UNL     1       5.562   0.118  -2.038  1.00  0.00     0.097 A 
ATOM     16  HN  UNL     1       4.805  -0.872  -0.295  1.00  0.00     0.167 HD
HETATM   17  C   UNL     1       5.394   1.320  -2.694  1.00  0.00     0.070 A 
HETATM   18  S   UNL     1       4.362   2.337  -1.772  1.00  0.00    -0.064 SA
ENDBRANCH   4  13
TORSDOF 3
