REMARK  6 active torsions:
REMARK  status: ('A' for Active; 'I' for Inactive)
REMARK    1  A    between atoms: O_2  and  C_3 
REMARK    2  A    between atoms: C_3  and  C_4 
REMARK    3  A    between atoms: C_4  and  N_5 
REMARK    4  A    between atoms: C_6  and  S_7 
REMARK    5  A    between atoms: S_7  and  C_8 
REMARK    6  A    between atoms: C_8  and  C_9 
ROOT
HETATM    1  N   UNL     1       4.788  -2.457   1.091  1.00  0.00    -0.324 N 
HETATM    2  C   UNL     1       5.634  -2.537   2.169  1.00  0.00     0.148 C 
HETATM    3  N   UNL     1       5.797  -3.777   2.579  1.00  0.00    -0.335 N 
ATOM      4  HN  UNL     1       6.360  -4.100   3.366  1.00  0.00     0.168 HD
HETATM    5  C   UNL     1       5.047  -4.542   1.721  1.00  0.00     0.062 A 
HETATM    6  C   UNL     1       4.819  -5.926   1.725  1.00  0.00     0.055 A 
HETATM    7  C   UNL     1       4.028  -6.471   0.709  1.00  0.00     0.036 A 
HETATM    8 CL   UNL     1       3.691  -8.160   0.711  1.00  0.00    -0.084 Cl
HETATM    9  C   UNL     1       3.506  -5.677  -0.311  1.00  0.00     0.026 A 
HETATM   10  C   UNL     1       3.738  -4.299  -0.335  1.00  0.00     0.034 A 
HETATM   11  C   UNL     1       4.477  -3.756   0.724  1.00  0.00     0.063 A 
ENDROOT
BRANCH   2  12
HETATM   12  S   UNL     1       6.420  -1.160   2.872  1.00  0.00    -0.087 SA
BRANCH  12  13
HETATM   13  C   UNL     1       7.801  -1.924   3.768  1.00  0.00     0.153 C 
BRANCH  13  14
HETATM   14  C   UNL     1       8.858  -2.425   2.817  1.00  0.00     0.084 C 
HETATM   15  N   UNL     1      10.079  -1.952   2.808  1.00  0.00    -0.305 N 
HETATM   16  C   UNL     1      10.750  -2.738   1.896  1.00  0.00     0.313 C 
ATOM     17  HN  UNL     1      10.451  -1.175   3.354  1.00  0.00     0.171 HD
HETATM   18  O   UNL     1      11.864  -2.539   1.443  1.00  0.00    -0.252 OA
HETATM   19  N   UNL     1       9.929  -3.787   1.512  1.00  0.00    -0.171 NA
HETATM   20  N   UNL     1       8.641  -3.464   1.935  1.00  0.00    -0.206 NA
HETATM   21  H   UNL     1      10.073  -4.142   0.575  1.00  0.00     0.152 HD
HETATM   22  H   UNL     1       8.030  -4.213   2.271  1.00  0.00     0.148 HD
ENDBRANCH  13  14
ENDBRANCH  12  13
ENDBRANCH   2  12
BRANCH   1  23
HETATM   23  C   UNL     1       4.249  -1.274   0.442  1.00  0.00     0.157 C 
BRANCH  23  24
HETATM   24  C   UNL     1       2.719  -1.219   0.472  1.00  0.00     0.187 C 
BRANCH  24  25
HETATM   25  O   UNL     1       2.260  -0.092  -0.276  1.00  0.00    -0.394 OA
HETATM   26  C   UNL     1       0.840  -0.106  -0.402  1.00  0.00     0.201 C 
ENDBRANCH  24  25
ENDBRANCH  23  24
ENDBRANCH   1  23
TORSDOF 6
