REMARK  3 active torsions:
REMARK  status: ('A' for Active; 'I' for Inactive)
REMARK    1  A    between atoms: C_7  and  N_8 
REMARK       I    between atoms: N_8  and  C_9 
REMARK    2  A    between atoms: C_9  and  C_11 
REMARK    3  A    between atoms: C_11  and  N_12 
ROOT
HETATM    1  N   UNL     1       2.225  -2.990   3.977  1.00  0.00    -0.277 N 
HETATM    2  C   UNL     1       3.058  -2.436   4.901  1.00  0.00     0.203 A 
HETATM    3  N   UNL     1       2.363  -2.053   5.948  1.00  0.00    -0.327 N 
ATOM      4  HN  UNL     1       2.696  -1.606   6.802  1.00  0.00     0.169 HD
HETATM    5  C   UNL     1       1.080  -2.402   5.611  1.00  0.00     0.204 A 
HETATM    6  C   UNL     1      -0.041  -2.164   6.476  1.00  0.00     0.138 C 
HETATM    7  N   UNL     1      -0.951  -1.974   7.174  1.00  0.00    -0.188 NA
HETATM    8  N   UNL     1       0.947  -2.993   4.413  1.00  0.00    -0.273 N 
ATOM      9  HN  UNL     1       0.107  -3.348   3.956  1.00  0.00     0.189 HD
ENDROOT
BRANCH   1  10
HETATM   10  C   UNL     1       2.574  -3.595   2.710  1.00  0.00     0.252 C 
BRANCH  10  11
HETATM   11  C   UNL     1       3.168  -2.578   1.765  1.00  0.00     0.237 C 
HETATM   12  N   UNL     1       2.510  -2.436   0.558  1.00  0.00    -0.355 N 
HETATM   13  H   UNL     1       1.593  -2.852   0.440  1.00  0.00     0.162 HD
HETATM   14  O   UNL     1       4.181  -1.945   2.053  1.00  0.00    -0.272 OA
BRANCH  12  15
HETATM   15  C   UNL     1       2.922  -1.425  -0.409  1.00  0.00     0.088 C 
HETATM   16  C   UNL     1       2.386  -0.018  -0.055  1.00  0.00     0.004 C 
HETATM   17  C   UNL     1       0.857   0.044   0.061  1.00  0.00     0.012 C 
HETATM   18  C   UNL     1       2.900   0.999  -1.089  1.00  0.00     0.006 C 
HETATM   19  C   UNL     1       2.568   0.603  -2.528  1.00  0.00     0.001 C 
HETATM   20  C   UNL     1       3.032  -0.814  -2.856  1.00  0.00     0.002 C 
HETATM   21  C   UNL     1       2.541  -1.840  -1.835  1.00  0.00     0.025 C 
ENDBRANCH  12  15
ENDBRANCH  10  11
ENDBRANCH   1  10
TORSDOF 3
