REMARK  4 active torsions:
REMARK  status: ('A' for Active; 'I' for Inactive)
REMARK    1  A    between atoms: O_2  and  C_3 
REMARK    2  A    between atoms: C_6  and  N_7 
REMARK       I    between atoms: N_7  and  C_8 
REMARK       I    between atoms: C_8  and  N_10 
REMARK    3  A    between atoms: N_10  and  C_11 
REMARK    4  A    between atoms: N_14  and  S_17 
ROOT
HETATM    1  N   UNL     1       4.797   3.721   3.741  1.00  0.00    -0.308 N 
HETATM    2  C   UNL     1       5.655   3.364   4.756  1.00  0.00     0.321 C 
HETATM    3  O   UNL     1       5.409   2.563   5.648  1.00  0.00    -0.247 OA
HETATM    4  N   UNL     1       6.883   3.982   4.633  1.00  0.00    -0.338 N 
HETATM    5  H   UNL     1       5.003   4.571   3.240  1.00  0.00     0.170 HD
HETATM    6  H   UNL     1       6.828   4.944   4.335  1.00  0.00     0.164 HD
ENDROOT
BRANCH   1   7
HETATM    7  C   UNL     1       3.557   3.097   3.485  1.00  0.00     0.051 A 
HETATM    8  C   UNL     1       3.226   1.830   3.962  1.00  0.00     0.035 A 
HETATM    9  C   UNL     1       1.964   1.299   3.709  1.00  0.00     0.058 A 
HETATM   10  C   UNL     1       1.071   2.054   2.971  1.00  0.00     0.141 A 
HETATM   11  N   UNL     1       1.366   3.261   2.443  1.00  0.00    -0.345 N 
HETATM   12  C   UNL     1       2.603   3.748   2.707  1.00  0.00     0.119 A 
ATOM     13  HN  UNL     1       0.694   3.778   1.876  1.00  0.00     0.167 HD
BRANCH  10  14
HETATM   14  O   UNL     1      -0.187   1.510   2.807  1.00  0.00    -0.341 OA
HETATM   15  C   UNL     1      -1.072   2.362   2.091  1.00  0.00     0.211 C 
ENDBRANCH  10  14
ENDBRANCH   1   7
BRANCH   4  16
HETATM   16  C   UNL     1       7.962   3.656   5.574  1.00  0.00     0.089 C 
HETATM   17  C   UNL     1       9.199   4.520   5.293  1.00  0.00     0.045 C 
HETATM   18  C   UNL     1       9.943   4.088   4.026  1.00  0.00     0.137 C 
HETATM   19  N   UNL     1      10.230   2.631   4.019  1.00  0.00    -0.311 N 
HETATM   20  C   UNL     1       9.001   1.820   4.206  1.00  0.00     0.137 C 
HETATM   21  C   UNL     1       8.356   2.167   5.537  1.00  0.00     0.045 C 
BRANCH  19  22
HETATM   22  S   UNL     1      11.620   2.085   4.834  1.00  0.00     0.224 S 
HETATM   23  O   UNL     1      11.831   2.922   5.994  1.00  0.00    -0.206 OA
HETATM   24  O   UNL     1      11.546   0.643   4.952  1.00  0.00    -0.206 OA
HETATM   25  C   UNL     1      12.891   2.439   3.645  1.00  0.00     0.186 C 
ENDBRANCH  19  22
ENDBRANCH   4  16
TORSDOF 4
