REMARK  4 active torsions:
REMARK  status: ('A' for Active; 'I' for Inactive)
REMARK    1  A    between atoms: C_2  and  C_3 
REMARK    2  A    between atoms: C_2  and  N_14 
REMARK       I    between atoms: C_3  and  N_5 
REMARK    3  A    between atoms: N_5  and  C_6 
REMARK    4  A    between atoms: C_6  and  C_7 
ROOT
HETATM    1  C   UNL     1       3.172  -0.416   1.305  1.00  0.00     0.242 C 
HETATM    2  O   UNL     1       4.101  -1.210   1.434  1.00  0.00    -0.271 OA
HETATM    3  N   UNL     1       2.600   0.235   2.385  1.00  0.00    -0.359 N 
HETATM    4  H   UNL     1       1.807   0.847   2.206  1.00  0.00     0.162 HD
ENDROOT
BRANCH   1   5
HETATM    5  C   UNL     1       2.547  -0.078  -0.048  1.00  0.00     0.195 C 
HETATM    6  C   UNL     1       3.203  -0.838  -1.199  1.00  0.00     0.044 C 
BRANCH   5   7
HETATM    7  N   UNL     1       2.595   1.364  -0.262  1.00  0.00    -0.290 N 
HETATM    8  C   UNL     1       3.702   2.143  -0.451  1.00  0.00     0.112 A 
HETATM    9  C   UNL     1       3.250   3.436  -0.554  1.00  0.00     0.037 A 
HETATM   10  C   UNL     1       1.856   3.340  -0.400  1.00  0.00     0.108 A 
HETATM   11  N   UNL     1       1.455   2.086  -0.171  1.00  0.00    -0.309 N 
ATOM     12  HN  UNL     1       0.512   1.752   0.026  1.00  0.00     0.186 HD
ENDBRANCH   5   7
ENDBRANCH   1   5
BRANCH   3  13
HETATM   13  C   UNL     1       3.109   0.113   3.741  1.00  0.00     0.128 C 
BRANCH  13  14
HETATM   14  C   UNL     1       3.752   1.406   4.256  1.00  0.00     0.018 C 
HETATM   15  C   UNL     1       2.755   2.571   4.384  1.00  0.00     0.022 C 
HETATM   16  C   UNL     1       3.490   3.907   4.304  1.00  0.00     0.141 C 
HETATM   17  S   UNL     1       5.185   3.566   3.884  1.00  0.00     0.144 S 
HETATM   18  O   UNL     1       5.557   4.347   2.725  1.00  0.00    -0.228 OA
HETATM   19  O   UNL     1       5.963   3.564   5.106  1.00  0.00    -0.228 OA
HETATM   20  C   UNL     1       4.917   1.879   3.392  1.00  0.00     0.146 C 
ENDBRANCH  13  14
ENDBRANCH   3  13
TORSDOF 4
