REMARK  2 active torsions:
REMARK  status: ('A' for Active; 'I' for Inactive)
REMARK    1  A    between atoms: C_5  and  N_6 
REMARK       I    between atoms: N_6  and  C_7 
REMARK       I    between atoms: C_7  and  N_9 
REMARK    2  A    between atoms: N_9  and  C_10 
ROOT
HETATM    1  N   UNL     1       6.453   0.703  -2.303  1.00  0.00    -0.295 N 
HETATM    2  C   UNL     1       7.432   1.541  -1.824  1.00  0.00     0.322 C 
HETATM    3  O   UNL     1       7.266   2.757  -1.829  1.00  0.00    -0.247 OA
HETATM    4  N   UNL     1       8.577   0.922  -1.420  1.00  0.00    -0.337 N 
HETATM    5  H   UNL     1       5.680   1.188  -2.730  1.00  0.00     0.172 HD
HETATM    6  H   UNL     1       8.453  -0.077  -1.273  1.00  0.00     0.164 HD
ENDROOT
BRANCH   1   7
HETATM    7  C   UNL     1       6.458  -0.701  -2.298  1.00  0.00     0.108 A 
HETATM    8  C   UNL     1       5.522  -1.376  -3.073  1.00  0.00     0.052 A 
HETATM    9  C   UNL     1       5.587  -2.772  -3.140  1.00  0.00     0.047 A 
HETATM   10  C   UNL     1       6.553  -3.441  -2.407  1.00  0.00     0.131 A 
HETATM   11  F   UNL     1       6.652  -4.774  -2.464  1.00  0.00    -0.205 F 
HETATM   12  C   UNL     1       7.418  -2.706  -1.626  1.00  0.00     0.132 A 
HETATM   13  N   UNL     1       7.392  -1.355  -1.562  1.00  0.00    -0.349 N 
ATOM     14  HN  UNL     1       8.054  -0.844  -0.978  1.00  0.00     0.167 HD
ENDBRANCH   1   7
BRANCH   4  15
HETATM   15  C   UNL     1       9.675   1.500  -0.733  1.00  0.00     0.096 A 
HETATM   16  C   UNL     1      11.003   0.801  -1.005  1.00  0.00     0.019 A 
HETATM   17  C   UNL     1      10.831   2.248  -1.337  1.00  0.00     0.019 A 
HETATM   18  C   UNL     1      12.171   0.760  -0.042  1.00  0.00    -0.008 C 
HETATM   19  C   UNL     1      11.906   2.930  -0.481  1.00  0.00    -0.008 C 
HETATM   20  C   UNL     1      13.281   2.625  -1.110  1.00  0.00     0.005 C 
HETATM   21  C   UNL     1      11.998   2.044   0.778  1.00  0.00     0.010 C 
HETATM   22  C   UNL     1      13.445   1.106  -0.848  1.00  0.00     0.005 C 
ENDBRANCH   4  15
TORSDOF 2
