REMARK  2 active torsions:
REMARK  status: ('A' for Active; 'I' for Inactive)
REMARK       I    between atoms: C_2  and  N_3 
REMARK       I    between atoms: C_2  and  N_12 
REMARK    1  A    between atoms: N_3  and  C_4 
REMARK    2  A    between atoms: N_12  and  C_13 
ROOT
HETATM    1  O   UNL     1       2.320  -1.374   2.228  1.00  0.00    -0.247 OA
HETATM    2  C   UNL     1       2.880  -0.751   1.333  1.00  0.00     0.321 C 
HETATM    3  N   UNL     1       2.887  -1.204   0.036  1.00  0.00    -0.330 N 
HETATM    4  N   UNL     1       3.586   0.417   1.489  1.00  0.00    -0.308 N 
HETATM    5  H   UNL     1       2.930  -0.519  -0.710  1.00  0.00     0.165 HD
HETATM    6  H   UNL     1       4.273   0.611   0.773  1.00  0.00     0.170 HD
ENDROOT
BRANCH   3   7
HETATM    7  C   UNL     1       2.147  -2.428  -0.264  1.00  0.00     0.172 C 
HETATM    8  C   UNL     1       3.019  -3.664   0.012  1.00  0.00     0.034 C 
HETATM    9  C   UNL     1       2.183  -4.930   0.186  1.00  0.00     0.004 C 
HETATM   10  C   UNL     1       1.727  -5.618  -1.105  1.00  0.00     0.015 C 
HETATM   11  C   UNL     1       1.486  -4.741  -2.337  1.00  0.00     0.095 C 
HETATM   12  N   UNL     1       0.826  -3.488  -2.034  1.00  0.00    -0.261 NA
HETATM   13  C   UNL     1       1.663  -2.428  -1.718  1.00  0.00     0.220 C 
HETATM   14  H   UNL     1       0.074  -3.621  -1.368  1.00  0.00     0.130 HD
HETATM   15  O   UNL     1       2.008  -1.583  -2.540  1.00  0.00    -0.278 OA
ENDBRANCH   3   7
BRANCH   4  16
HETATM   16  C   UNL     1       3.646   1.176   2.681  1.00  0.00     0.051 A 
HETATM   17  C   UNL     1       2.722   1.045   3.719  1.00  0.00     0.032 A 
HETATM   18  C   UNL     1       2.841   1.830   4.865  1.00  0.00     0.019 A 
HETATM   19  C   UNL     1       3.885   2.736   4.934  1.00  0.00     0.088 A 
HETATM   20  N   UNL     1       4.792   2.908   3.949  1.00  0.00    -0.373 N 
HETATM   21  C   UNL     1       4.647   2.127   2.848  1.00  0.00     0.117 A 
ATOM     22  HN  UNL     1       5.547   3.589   4.028  1.00  0.00     0.164 HD
ENDBRANCH   4  16
TORSDOF 2
