REMARK  4 active torsions:
REMARK  status: ('A' for Active; 'I' for Inactive)
REMARK    1  A    between atoms: C_2  and  C_3 
REMARK    2  A    between atoms: C_2  and  N_10 
REMARK    3  A    between atoms: C_3  and  N_4 
REMARK       I    between atoms: N_10  and  C_11 
REMARK    4  A    between atoms: C_11  and  C_13 
REMARK       I    between atoms: N_17  and  C_18 
ROOT
HETATM    1  N   UNL     1       3.047  -0.351   1.329  1.00  0.00    -0.353 N 
HETATM    2  C   UNL     1       4.390  -0.548   1.534  1.00  0.00     0.241 C 
HETATM    3  O   UNL     1       5.164  -0.827   0.621  1.00  0.00    -0.271 OA
HETATM    4  H   UNL     1       2.485  -0.024   2.109  1.00  0.00     0.163 HD
ENDROOT
BRANCH   1   5
HETATM    5  C   UNL     1       2.449  -0.399  -0.009  1.00  0.00     0.100 C 
HETATM    6  C   UNL     1       1.049  -0.995   0.106  1.00  0.00     0.034 C 
BRANCH   5   7
HETATM    7  C   UNL     1       2.480   0.993  -0.660  1.00  0.00     0.172 C 
BRANCH   7   8
HETATM    8  N   UNL     1       1.942   1.015  -2.005  1.00  0.00    -0.302 N 
HETATM    9  C   UNL     1       2.630   0.830  -3.169  1.00  0.00     0.111 A 
HETATM   10  C   UNL     1       1.701   0.934  -4.178  1.00  0.00     0.037 A 
HETATM   11  C   UNL     1       0.486   1.196  -3.519  1.00  0.00     0.108 A 
HETATM   12  N   UNL     1       0.632   1.261  -2.194  1.00  0.00    -0.310 N 
ATOM     13  HN  UNL     1      -0.081   1.452  -1.490  1.00  0.00     0.186 HD
ENDBRANCH   7   8
ENDBRANCH   5   7
ENDBRANCH   1   5
BRANCH   2  14
HETATM   14  C   UNL     1       4.841  -0.544   3.000  1.00  0.00     0.179 C 
HETATM   15  C   UNL     1       4.290  -1.807   3.694  1.00  0.00     0.037 C 
HETATM   16  C   UNL     1       3.885  -1.382   5.104  1.00  0.00     0.022 C 
HETATM   17  C   UNL     1       4.363   0.046   5.235  1.00  0.00     0.127 C 
HETATM   18  N   UNL     1       4.392   0.549   3.875  1.00  0.00    -0.339 N 
HETATM   19  C   UNL     1       4.741   1.883   3.730  1.00  0.00     0.216 C 
HETATM   20  O   UNL     1       4.908   2.623   4.701  1.00  0.00    -0.274 OA
HETATM   21  C   UNL     1       4.766   2.466   2.339  1.00  0.00     0.117 C 
ENDBRANCH   2  14
TORSDOF 4
