REMARK  6 active torsions:
REMARK  status: ('A' for Active; 'I' for Inactive)
REMARK    1  A    between atoms: C_7  and  O_8 
REMARK    2  A    between atoms: O_8  and  C_9 
REMARK    3  A    between atoms: C_9  and  C_10 
REMARK    4  A    between atoms: C_10  and  O_11 
REMARK    5  A    between atoms: C_10  and  C_12 
REMARK    6  A    between atoms: C_12  and  N_13 
ROOT
HETATM    1  C   UNL     1       5.414  -4.883  -0.539  1.00  0.00     0.161 C 
ENDROOT
BRANCH   1   2
HETATM    2  C   UNL     1       4.424  -3.737  -0.275  1.00  0.00     0.209 C 
BRANCH   2   3
HETATM    3  O   UNL     1       5.144  -2.502  -0.291  1.00  0.00    -0.347 OA
BRANCH   3   4
HETATM    4  C   UNL     1       4.448  -1.342  -0.072  1.00  0.00     0.091 A 
HETATM    5  C   UNL     1       5.196  -0.154  -0.026  1.00  0.00     0.067 A 
HETATM    6  C   UNL     1       4.568   1.077   0.182  1.00  0.00     0.027 A 
HETATM    7 CL   UNL     1       6.914  -0.160  -0.225  1.00  0.00    -0.081 Cl
HETATM    8  C   UNL     1       3.183   1.139   0.332  1.00  0.00     0.008 A 
HETATM    9  C   UNL     1       2.419  -0.031   0.278  1.00  0.00    -0.059 A 
HETATM   10  C   UNL     1       0.925   0.018   0.413  1.00  0.00     0.048 C 
HETATM   11  C   UNL     1       3.060  -1.268   0.089  1.00  0.00     0.045 A 
ENDBRANCH   3   4
ENDBRANCH   2   3
ENDBRANCH   1   2
BRANCH   1  12
HETATM   12  O   UNL     1       6.406  -4.954   0.490  1.00  0.00    -0.392 OA
HETATM   13  H   UNL     1       5.968  -4.910   1.356  1.00  0.00     0.210 HD
ENDBRANCH   1  12
BRANCH   1  14
HETATM   14  C   UNL     1       4.731  -6.255  -0.726  1.00  0.00     0.166 C 
BRANCH  14  15
HETATM   15  N   UNL     1       3.994  -6.722   0.450  1.00  0.00    -0.307 N 
HETATM   16  C   UNL     1       2.666  -6.427   0.595  1.00  0.00     0.186 C 
HETATM   17  N   UNL     1       1.924  -6.793   1.583  1.00  0.00    -0.355 N 
HETATM   18  C   UNL     1       2.515  -7.531   2.580  1.00  0.00     0.017 C 
ATOM     19  HN  UNL     1       0.936  -6.544   1.623  1.00  0.00     0.166 HD
HETATM   20  C   UNL     1       1.598  -7.878   3.724  1.00  0.00     0.069 C 
HETATM   21  C   UNL     1       3.802  -7.921   2.556  1.00  0.00     0.028 C 
HETATM   22  C   UNL     1       4.525  -8.689   3.620  1.00  0.00     0.056 C 
HETATM   23  C   UNL     1       4.609  -7.561   1.356  1.00  0.00     0.256 C 
HETATM   24  O   UNL     1       5.741  -8.015   1.216  1.00  0.00    -0.267 OA
ENDBRANCH  14  15
ENDBRANCH   1  14
TORSDOF 6
