REMARK  4 active torsions:
REMARK  status: ('A' for Active; 'I' for Inactive)
REMARK    1  A    between atoms: C_2  and  C_3 
REMARK    2  A    between atoms: C_2  and  C_15 
REMARK    3  A    between atoms: C_3  and  N_4 
REMARK       I    between atoms: N_4  and  C_5 
REMARK       I    between atoms: C_5  and  N_7 
REMARK    4  A    between atoms: N_7  and  C_8 
ROOT
HETATM    1  N   UNL     1       1.866  -2.132   1.279  1.00  0.00    -0.342 N 
HETATM    2  C   UNL     1       2.745  -3.079   1.743  1.00  0.00     0.316 C 
HETATM    3  O   UNL     1       3.945  -2.850   1.845  1.00  0.00    -0.247 OA
HETATM    4  N   UNL     1       2.193  -4.321   1.924  1.00  0.00    -0.339 N 
HETATM    5  H   UNL     1       0.910  -2.156   1.613  1.00  0.00     0.164 HD
HETATM    6  H   UNL     1       1.203  -4.404   2.099  1.00  0.00     0.164 HD
ENDROOT
BRANCH   1   7
HETATM    7  C   UNL     1       2.430  -0.888   0.780  1.00  0.00     0.135 C 
BRANCH   7   8
HETATM    8  C   UNL     1       1.470   0.205   0.295  1.00  0.00     0.057 C 
HETATM    9  C   UNL     1       0.584   0.731   1.424  1.00  0.00     0.018 C 
BRANCH   8  10
HETATM   10  C   UNL     1       0.658  -0.213  -0.904  1.00  0.00     0.056 A 
HETATM   11  N   UNL     1      -0.584  -0.651  -0.860  1.00  0.00    -0.363 N 
HETATM   12  C   UNL     1      -1.054  -0.857  -2.143  1.00  0.00     0.095 A 
ATOM     13  HN  UNL     1      -1.118  -0.814  -0.007  1.00  0.00     0.165 HD
HETATM   14  C   UNL     1      -0.161  -0.591  -3.157  1.00  0.00     0.068 A 
HETATM   15  S   UNL     1       1.322  -0.055  -2.491  1.00  0.00    -0.087 SA
ENDBRANCH   8  10
ENDBRANCH   7   8
ENDBRANCH   1   7
BRANCH   4  16
HETATM   16  C   UNL     1       3.078  -5.487   2.056  1.00  0.00     0.086 C 
HETATM   17  C   UNL     1       3.938  -5.664   0.796  1.00  0.00     0.026 C 
HETATM   18  C   UNL     1       3.055  -6.021  -0.394  1.00  0.00     0.006 C 
HETATM   19  C   UNL     1       2.423  -7.399  -0.216  1.00  0.00    -0.019 C 
HETATM   20  C   UNL     1       3.466  -8.497  -0.460  1.00  0.00     0.010 C 
HETATM   21  C   UNL     1       1.710  -7.528   1.147  1.00  0.00     0.006 C 
HETATM   22  C   UNL     1       2.352  -6.812   2.350  1.00  0.00     0.026 C 
ENDBRANCH   4  16
TORSDOF 4
