REMARK  3 active torsions:
REMARK  status: ('A' for Active; 'I' for Inactive)
REMARK       I    between atoms: C_2  and  N_3 
REMARK       I    between atoms: C_2  and  N_12 
REMARK    1  A    between atoms: N_3  and  C_4 
REMARK    2  A    between atoms: N_12  and  C_13 
REMARK    3  A    between atoms: C_16  and  N_20 
ROOT
HETATM    1  O   UNL     1       2.741   0.468  -1.215  1.00  0.00    -0.247 OA
HETATM    2  C   UNL     1       2.313   0.043  -0.147  1.00  0.00     0.321 C 
HETATM    3  N   UNL     1       0.961  -0.110   0.079  1.00  0.00    -0.330 N 
HETATM    4  N   UNL     1       3.079  -0.294   0.947  1.00  0.00    -0.308 N 
HETATM    5  H   UNL     1       0.700  -0.919   0.632  1.00  0.00     0.165 HD
HETATM    6  H   UNL     1       2.611  -0.250   1.840  1.00  0.00     0.170 HD
ENDROOT
BRANCH   4   7
HETATM    7  C   UNL     1       4.494  -0.374   0.940  1.00  0.00     0.051 A 
HETATM    8  C   UNL     1       5.235  -0.483  -0.225  1.00  0.00     0.035 A 
HETATM    9  C   UNL     1       6.630  -0.550  -0.165  1.00  0.00     0.051 A 
HETATM   10  C   UNL     1       7.299  -0.541   1.052  1.00  0.00     0.103 A 
HETATM   11  N   UNL     1       6.587  -0.443   2.198  1.00  0.00    -0.350 N 
HETATM   12  C   UNL     1       5.225  -0.364   2.121  1.00  0.00     0.119 A 
ATOM     13  HN  UNL     1       7.058  -0.428   3.103  1.00  0.00     0.166 HD
BRANCH  10  14
HETATM   14  N   UNL     1       8.681  -0.569   1.096  1.00  0.00    -0.363 N 
HETATM   15  C   UNL     1       9.476  -1.312   0.105  1.00  0.00     0.150 C 
HETATM   16  C   UNL     1      10.097  -2.568   0.736  1.00  0.00     0.187 C 
HETATM   17  O   UNL     1      10.860  -2.247   1.908  1.00  0.00    -0.388 OA
HETATM   18  C   UNL     1      10.010  -1.636   2.895  1.00  0.00     0.187 C 
HETATM   19  C   UNL     1       9.378  -0.337   2.370  1.00  0.00     0.150 C 
ENDBRANCH  10  14
ENDBRANCH   4   7
BRANCH   3  20
HETATM   20  C   UNL     1       0.044   0.211  -1.027  1.00  0.00     0.172 C 
HETATM   21  C   UNL     1      -0.295   1.702  -0.998  1.00  0.00     0.034 C 
HETATM   22  C   UNL     1      -0.902   2.169  -2.315  1.00  0.00     0.004 C 
HETATM   23  C   UNL     1      -2.406   1.956  -2.420  1.00  0.00     0.015 C 
HETATM   24  C   UNL     1      -2.971   0.732  -1.714  1.00  0.00     0.095 C 
HETATM   25  N   UNL     1      -2.213  -0.494  -1.857  1.00  0.00    -0.261 NA
HETATM   26  C   UNL     1      -1.154  -0.754  -1.018  1.00  0.00     0.220 C 
HETATM   27  H   UNL     1      -2.809  -1.314  -1.882  1.00  0.00     0.130 HD
HETATM   28  O   UNL     1      -1.125  -1.824  -0.404  1.00  0.00    -0.278 OA
ENDBRANCH   3  20
TORSDOF 3
