REMARK  6 active torsions:
REMARK  status: ('A' for Active; 'I' for Inactive)
REMARK    1  A    between atoms: C_2  and  CA_3 
REMARK    2  A    between atoms: CA_3  and  C_4 
REMARK    3  A    between atoms: CA_3  and  N_6 
REMARK    4  A    between atoms: C_4  and  O_5 
REMARK       I    between atoms: N_6  and  C_7 
REMARK       I    between atoms: C_7  and  N_9 
REMARK    5  A    between atoms: N_9  and  C_10 
REMARK    6  A    between atoms: C_13  and  N_17 
ROOT
HETATM    1  C   UNL     1       7.190   3.013   2.668  1.00  0.00     0.051 A 
HETATM    2  C   UNL     1       6.845   4.354   2.668  1.00  0.00     0.035 A 
HETATM    3  C   UNL     1       7.598   5.276   3.390  1.00  0.00     0.051 A 
HETATM    4  C   UNL     1       8.736   4.885   4.084  1.00  0.00     0.103 A 
HETATM    5  N   UNL     1       9.116   3.584   4.054  1.00  0.00    -0.350 N 
ATOM      6  HN  UNL     1       9.957   3.278   4.542  1.00  0.00     0.166 HD
HETATM    7  C   UNL     1       8.352   2.691   3.358  1.00  0.00     0.119 A 
ENDROOT
BRANCH   1   8
HETATM    8  N   UNL     1       6.404   2.016   2.031  1.00  0.00    -0.308 N 
HETATM    9  C   UNL     1       5.091   2.199   1.654  1.00  0.00     0.321 C 
HETATM   10  N   UNL     1       4.514   1.080   1.110  1.00  0.00    -0.336 N 
HETATM   11  O   UNL     1       4.427   3.216   1.832  1.00  0.00    -0.247 OA
HETATM   12  H   UNL     1       5.096   0.407   0.631  1.00  0.00     0.164 HD
HETATM   13  H   UNL     1       6.730   1.065   2.074  1.00  0.00     0.170 HD
BRANCH  10  14
HETATM   14  CA  UNL     1       3.086   1.103   0.763  1.00  0.00     0.109 C 
BRANCH  14  15
HETATM   15  C   UNL     1       2.877   1.667  -0.657  1.00  0.00     0.023 C 
HETATM   16  C   UNL     1       1.408   1.853  -1.017  1.00  0.00     0.007 C 
ENDBRANCH  14  15
BRANCH  14  17
HETATM   17  C   UNL     1       2.477  -0.289   0.981  1.00  0.00     0.189 C 
BRANCH  17  18
HETATM   18  O   UNL     1       3.035  -1.247   0.086  1.00  0.00    -0.399 OA
HETATM   19  H   UNL     1       2.681  -1.055  -0.800  1.00  0.00     0.209 HD
ENDBRANCH  17  18
ENDBRANCH  14  17
ENDBRANCH  10  14
ENDBRANCH   1   8
BRANCH   4  20
HETATM   20  N   UNL     1       9.484   5.794   4.786  1.00  0.00    -0.367 N 
HETATM   21  C   UNL     1      10.713   5.420   5.469  1.00  0.00     0.124 C 
HETATM   22  C   UNL     1      11.454   6.749   5.679  1.00  0.00     0.021 C 
HETATM   23  C   UNL     1      10.697   7.770   4.843  1.00  0.00     0.021 C 
HETATM   24  C   UNL     1       9.277   7.230   4.812  1.00  0.00     0.124 C 
ENDBRANCH   4  20
TORSDOF 6
