REMARK  8 active torsions:
REMARK  status: ('A' for Active; 'I' for Inactive)
REMARK    1  A    between atoms: C_2  and  N_3 
REMARK    2  A    between atoms: C_2  and  C_12 
REMARK    3  A    between atoms: N_3  and  C_4 
REMARK    4  A    between atoms: C_4  and  C_5 
REMARK    5  A    between atoms: C_5  and  C_6 
REMARK    6  A    between atoms: C_6  and  N_7 
REMARK    7  A    between atoms: N_7  and  S_8 
REMARK    8  A    between atoms: C_12  and  N_14 
ROOT
HETATM    1  N   UNL     1       2.857  -0.463   1.356  1.00  0.00     0.089 N 
HETATM    2  H   UNL     1       2.509   0.261   1.985  1.00  0.00     0.316 HD
ENDROOT
BRANCH   1   3
HETATM    3  C   UNL     1       2.471  -0.129  -0.041  1.00  0.00     0.240 C 
HETATM    4  C   UNL     1       0.940  -0.035  -0.154  1.00  0.00     0.045 C 
BRANCH   3   5
HETATM    5  C   UNL     1       3.094  -1.065  -1.127  1.00  0.00     0.136 C 
HETATM    6  C   UNL     1       2.698  -0.698  -2.563  1.00  0.00     0.036 C 
BRANCH   5   7
HETATM    7  N   UNL     1       4.553  -1.122  -1.021  1.00  0.00    -0.297 N 
HETATM    8  C   UNL     1       5.306  -2.235  -0.761  1.00  0.00     0.112 A 
HETATM    9  C   UNL     1       6.616  -1.818  -0.764  1.00  0.00     0.037 A 
HETATM   10  C   UNL     1       6.553  -0.445  -1.057  1.00  0.00     0.108 A 
HETATM   11  N   UNL     1       5.302  -0.021  -1.252  1.00  0.00    -0.310 N 
ATOM     12  HN  UNL     1       4.986   0.913  -1.513  1.00  0.00     0.186 HD
ENDBRANCH   5   7
ENDBRANCH   3   5
ENDBRANCH   1   3
BRANCH   1  13
HETATM   13  C   UNL     1       2.431  -1.781   1.805  1.00  0.00     0.271 C 
BRANCH  13  14
HETATM   14  C   UNL     1       2.929  -2.099   3.216  1.00  0.00     0.045 C 
BRANCH  14  15
HETATM   15  C   UNL     1       2.428  -3.494   3.584  1.00  0.00     0.105 C 
BRANCH  15  16
HETATM   16  N   UNL     1       2.773  -3.835   4.985  1.00  0.00    -0.220 NA
HETATM   17  H   UNL     1       2.377  -3.150   5.632  1.00  0.00     0.139 HD
BRANCH  16  18
HETATM   18  S   UNL     1       2.245  -5.399   5.401  1.00  0.00     0.205 S 
HETATM   19  O   UNL     1       0.800  -5.348   5.395  1.00  0.00    -0.212 OA
HETATM   20  O   UNL     1       2.977  -6.348   4.587  1.00  0.00    -0.212 OA
HETATM   21  C   UNL     1       2.798  -5.524   7.083  1.00  0.00     0.179 C 
ENDBRANCH  16  18
ENDBRANCH  15  16
ENDBRANCH  14  15
ENDBRANCH  13  14
ENDBRANCH   1  13
TORSDOF 8
