REMARK  6 active torsions:
REMARK  status: ('A' for Active; 'I' for Inactive)
REMARK    1  A    between atoms: N_6  and  C_7 
REMARK    2  A    between atoms: C_7  and  C_8 
REMARK    3  A    between atoms: C_8  and  C_9 
REMARK    4  A    between atoms: C_9  and  N_10 
REMARK       I    between atoms: N_10  and  C_11 
REMARK    5  A    between atoms: C_11  and  C_13 
REMARK    6  A    between atoms: C_13  and  N_14 
ROOT
HETATM    1  N   UNL     1       2.600  -5.938  -3.011  1.00  0.00    -0.360 N 
HETATM    2  C   UNL     1       1.368  -6.487  -3.224  1.00  0.00     0.235 C 
HETATM    3  O   UNL     1       0.939  -7.304  -2.406  1.00  0.00    -0.272 OA
HETATM    4  H   UNL     1       3.025  -6.225  -2.138  1.00  0.00     0.162 HD
ENDROOT
BRANCH   1   5
HETATM    5  C   UNL     1       3.257  -4.920  -3.801  1.00  0.00     0.124 C 
BRANCH   5   6
HETATM    6  C   UNL     1       2.734  -3.517  -3.508  1.00  0.00     0.050 C 
BRANCH   6   7
HETATM    7  C   UNL     1       3.163  -3.039  -2.117  1.00  0.00     0.274 C 
BRANCH   7   8
HETATM    8  N   UNL     1       2.690  -1.683  -1.784  1.00  0.00     0.088 N 
HETATM    9  C   UNL     1       3.221  -0.668  -2.709  1.00  0.00     0.272 C 
HETATM   10  C   UNL     1       2.759   0.744  -2.351  1.00  0.00     0.031 C 
HETATM   11  C   UNL     1       3.087   1.089  -0.905  1.00  0.00     0.007 C 
HETATM   12  C   UNL     1       2.571   0.015   0.057  1.00  0.00     0.010 C 
HETATM   13  C   UNL     1       1.045   0.050   0.187  1.00  0.00     0.011 C 
HETATM   14  C   UNL     1       3.066  -1.369  -0.392  1.00  0.00     0.276 C 
ENDBRANCH   7   8
ENDBRANCH   6   7
ENDBRANCH   5   6
ENDBRANCH   1   5
BRANCH   2  15
HETATM   15  C   UNL     1       0.597  -6.164  -4.509  1.00  0.00     0.235 C 
BRANCH  15  16
HETATM   16  N   UNL     1       0.984  -7.049  -5.613  1.00  0.00    -0.301 N 
HETATM   17  C   UNL     1       0.756  -8.400  -5.483  1.00  0.00     0.102 A 
HETATM   18  C   UNL     1       1.072  -9.262  -6.445  1.00  0.00     0.092 A 
HETATM   19  C   UNL     1       1.680  -8.766  -7.690  1.00  0.00     0.252 A 
HETATM   20  O   UNL     1       1.922  -9.569  -8.586  1.00  0.00    -0.268 OA
HETATM   21  N   UNL     1       1.931  -7.407  -7.745  1.00  0.00    -0.271 N 
HETATM   22  C   UNL     1       2.570  -6.869  -8.929  1.00  0.00     0.164 C 
HETATM   23  C   UNL     1       1.563  -6.498  -6.751  1.00  0.00     0.331 A 
HETATM   24  O   UNL     1       1.746  -5.285  -6.884  1.00  0.00    -0.246 OA
ENDBRANCH  15  16
ENDBRANCH   2  15
TORSDOF 6
