REMARK  5 active torsions:
REMARK  status: ('A' for Active; 'I' for Inactive)
REMARK    1  A    between atoms: C_2  and  C_3 
REMARK    2  A    between atoms: C_6  and  C_7 
REMARK    3  A    between atoms: C_7  and  C_8 
REMARK    4  A    between atoms: C_8  and  N_9 
REMARK       I    between atoms: N_9  and  C_10 
REMARK       I    between atoms: C_10  and  N_12 
REMARK    5  A    between atoms: N_12  and  C_13 
ROOT
HETATM    1  N   UNL     1       5.073  -1.864   6.777  1.00  0.00    -0.343 N 
HETATM    2  C   UNL     1       5.284  -3.031   7.466  1.00  0.00     0.316 C 
HETATM    3  O   UNL     1       5.376  -4.127   6.933  1.00  0.00    -0.247 OA
HETATM    4  N   UNL     1       5.361  -2.820   8.819  1.00  0.00    -0.338 N 
HETATM    5  H   UNL     1       4.653  -1.100   7.285  1.00  0.00     0.164 HD
HETATM    6  H   UNL     1       5.627  -1.892   9.115  1.00  0.00     0.164 HD
ENDROOT
BRANCH   1   7
HETATM    7  C   UNL     1       4.872  -1.880   5.335  1.00  0.00     0.130 C 
BRANCH   7   8
HETATM    8  C   UNL     1       3.432  -2.200   4.921  1.00  0.00     0.077 C 
BRANCH   8   9
HETATM    9  C   UNL     1       2.465  -1.118   5.291  1.00  0.00     0.018 A 
HETATM   10  N   UNL     1       2.699   0.172   4.838  1.00  0.00    -0.357 N 
HETATM   11  C   UNL     1       1.752   0.983   5.263  1.00  0.00     0.050 A 
ATOM     12  HN  UNL     1       3.491   0.452   4.259  1.00  0.00     0.166 HD
HETATM   13  S   UNL     1       0.520   0.244   6.207  1.00  0.00    -0.087 SA
HETATM   14  C   UNL     1       1.322  -1.261   6.053  1.00  0.00     0.076 A 
BRANCH  11  15
HETATM   15  C   UNL     1       1.721   2.454   4.990  1.00  0.00     0.060 C 
HETATM   16  C   UNL     1       2.456   3.229   6.073  1.00  0.00     0.012 C 
ENDBRANCH  11  15
ENDBRANCH   8   9
ENDBRANCH   7   8
ENDBRANCH   1   7
BRANCH   4  17
HETATM   17  C   UNL     1       5.607  -3.927   9.723  1.00  0.00     0.089 C 
HETATM   18  C   UNL     1       5.081  -3.666  11.137  1.00  0.00     0.026 C 
HETATM   19  C   UNL     1       6.069  -4.334  12.091  1.00  0.00     0.002 C 
HETATM   20  C   UNL     1       7.029  -5.128  11.212  1.00  0.00     0.006 C 
HETATM   21  C   UNL     1       7.079  -4.351   9.892  1.00  0.00     0.004 C 
HETATM   22  C   UNL     1       8.096  -3.212   9.963  1.00  0.00     0.012 C 
ENDBRANCH   4  17
TORSDOF 5
