REMARK  7 active torsions:
REMARK  status: ('A' for Active; 'I' for Inactive)
REMARK       I    between atoms: C_2  and  N_4 
REMARK    1  A    between atoms: N_4  and  C_5 
REMARK    2  A    between atoms: C_5  and  C_6 
REMARK    3  A    between atoms: C_6  and  C_7 
REMARK    4  A    between atoms: N_16  and  C_17 
REMARK    5  A    between atoms: C_17  and  C_18 
REMARK    6  A    between atoms: C_18  and  O_19 
REMARK    7  A    between atoms: O_19  and  C_20 
ROOT
HETATM    1  C   UNL     1       6.852  -1.534   2.284  1.00  0.00     0.086 A 
HETATM    2  N   UNL     1       7.562  -0.548   2.791  1.00  0.00    -0.344 N 
ATOM      3  HN  UNL     1       7.206   0.300   3.231  1.00  0.00     0.167 HD
HETATM    4  C   UNL     1       8.870  -0.890   2.609  1.00  0.00     0.060 A 
HETATM    5  C   UNL     1      10.021  -0.166   2.965  1.00  0.00     0.032 A 
HETATM    6  C   UNL     1      11.281  -0.701   2.689  1.00  0.00     0.002 A 
HETATM    7  C   UNL     1      11.395  -1.937   2.066  1.00  0.00     0.002 A 
HETATM    8  C   UNL     1      10.259  -2.671   1.705  1.00  0.00     0.032 A 
HETATM    9  C   UNL     1       8.989  -2.134   1.984  1.00  0.00     0.062 A 
HETATM   10  N   UNL     1       7.677  -2.540   1.793  1.00  0.00    -0.333 N 
ENDROOT
BRANCH  10  11
HETATM   11  C   UNL     1       7.168  -3.774   1.202  1.00  0.00     0.157 C 
BRANCH  11  12
HETATM   12  C   UNL     1       8.214  -4.752   0.687  1.00  0.00     0.196 C 
BRANCH  12  13
HETATM   13  O   UNL     1       7.627  -5.938   0.149  1.00  0.00    -0.350 OA
BRANCH  13  14
HETATM   14  C   UNL     1       8.545  -6.838  -0.344  1.00  0.00     0.069 A 
HETATM   15  C   UNL     1       9.831  -6.519  -0.794  1.00  0.00     0.037 A 
HETATM   16  C   UNL     1      10.673  -7.512  -1.296  1.00  0.00     0.003 A 
HETATM   17  C   UNL     1      10.235  -8.832  -1.363  1.00  0.00     0.007 A 
HETATM   18  C   UNL     1       8.948  -9.167  -0.932  1.00  0.00    -0.059 A 
HETATM   19  C   UNL     1       8.463 -10.584  -1.006  1.00  0.00     0.048 C 
HETATM   20  C   UNL     1       8.112  -8.163  -0.418  1.00  0.00     0.043 A 
ENDBRANCH  13  14
ENDBRANCH  12  13
ENDBRANCH  11  12
ENDBRANCH  10  11
BRANCH   1  21
HETATM   21  C   UNL     1       5.356  -1.575   2.262  1.00  0.00     0.096 C 
BRANCH  21  22
HETATM   22  C   UNL     1       4.754  -0.172   2.113  1.00  0.00     0.130 C 
BRANCH  22  23
HETATM   23  N   UNL     1       3.297  -0.176   2.096  1.00  0.00    -0.361 N 
HETATM   24  C   UNL     1       2.585  -0.747   1.065  1.00  0.00     0.213 C 
HETATM   25  C   UNL     1       1.097  -0.596   1.209  1.00  0.00     0.117 C 
HETATM   26  O   UNL     1       3.099  -1.345   0.126  1.00  0.00    -0.274 OA
HETATM   27  H   UNL     1       2.819   0.472   2.710  1.00  0.00     0.162 HD
ENDBRANCH  22  23
ENDBRANCH  21  22
ENDBRANCH   1  21
TORSDOF 7
