REMARK  6 active torsions:
REMARK  status: ('A' for Active; 'I' for Inactive)
REMARK    1  A    between atoms: S_2  and  C_4 
REMARK    2  A    between atoms: N_10  and  C_11 
REMARK    3  A    between atoms: C_11  and  C_12 
REMARK       I    between atoms: C_12  and  N_14 
REMARK    4  A    between atoms: N_14  and  C_15 
REMARK    5  A    between atoms: C_15  and  C_16 
REMARK    6  A    between atoms: C_16  and  C_17 
ROOT
HETATM    1  C   UNL     1       2.150  -4.365  -1.711  1.00  0.00     0.235 C 
HETATM    2  O   UNL     1       2.093  -4.476  -2.933  1.00  0.00    -0.272 OA
HETATM    3  N   UNL     1       2.145  -5.448  -0.856  1.00  0.00    -0.360 N 
HETATM    4  H   UNL     1       2.464  -5.316   0.097  1.00  0.00     0.162 HD
ENDROOT
BRANCH   1   5
HETATM    5  C   UNL     1       2.199  -3.017  -1.030  1.00  0.00     0.234 C 
BRANCH   5   6
HETATM    6  N   UNL     1       1.020  -2.199  -1.236  1.00  0.00    -0.311 N 
HETATM    7  C   UNL     1       0.787  -0.967  -0.678  1.00  0.00     0.192 A 
HETATM    8  N   UNL     1      -0.426  -0.572  -1.001  1.00  0.00    -0.277 N 
HETATM    9  N   UNL     1      -0.986  -1.535  -1.804  1.00  0.00    -0.294 N 
ATOM     10  HN  UNL     1      -0.872   0.297  -0.707  1.00  0.00     0.189 HD
HETATM   11  C   UNL     1      -0.101  -2.494  -1.952  1.00  0.00     0.202 A 
ATOM     12  HN  UNL     1      -1.921  -1.510  -2.212  1.00  0.00     0.187 HD
BRANCH   7  13
HETATM   13  S   UNL     1       1.859  -0.008   0.292  1.00  0.00     0.081 S 
HETATM   14  C   UNL     1       0.831   0.049   1.775  1.00  0.00     0.136 C 
HETATM   15  O   UNL     1       3.075  -0.839   0.581  1.00  0.00    -0.250 OA
ENDBRANCH   7  13
ENDBRANCH   5   6
ENDBRANCH   1   5
BRANCH   3  16
HETATM   16  C   UNL     1       2.226  -6.793  -1.395  1.00  0.00     0.123 C 
BRANCH  16  17
HETATM   17  C   UNL     1       1.651  -7.824  -0.430  1.00  0.00     0.024 C 
BRANCH  17  18
HETATM   18  C   UNL     1       1.647  -9.253  -1.016  1.00  0.00    -0.013 C 
HETATM   19  C   UNL     1       1.007 -10.251  -0.035  1.00  0.00     0.005 C 
HETATM   20  C   UNL     1       1.886 -10.522   1.186  1.00  0.00     0.000 C 
HETATM   21  C   UNL     1       3.296 -10.954   0.790  1.00  0.00     0.000 C 
HETATM   22  C   UNL     1       3.943  -9.996  -0.207  1.00  0.00     0.000 C 
HETATM   23  C   UNL     1       3.042  -9.761  -1.417  1.00  0.00     0.005 C 
ENDBRANCH  17  18
ENDBRANCH  16  17
ENDBRANCH   3  16
TORSDOF 6
