REMARK  3 active torsions:
REMARK  status: ('A' for Active; 'I' for Inactive)
REMARK    1  A    between atoms: C_4  and  N_5 
REMARK       I    between atoms: N_5  and  C_6 
REMARK       I    between atoms: C_6  and  N_8 
REMARK    2  A    between atoms: N_8  and  C_9 
REMARK    3  A    between atoms: C_9  and  C_10 
ROOT
HETATM    1  N   UNL     1       5.776   1.550  -0.131  1.00  0.00    -0.293 N 
HETATM    2  C   UNL     1       5.690   2.968  -0.075  1.00  0.00     0.321 C 
HETATM    3  O   UNL     1       4.632   3.569  -0.015  1.00  0.00    -0.247 OA
HETATM    4  N   UNL     1       6.926   3.550  -0.102  1.00  0.00    -0.342 N 
HETATM    5  H   UNL     1       6.682   1.119  -0.217  1.00  0.00     0.172 HD
HETATM    6  H   UNL     1       7.768   3.002  -0.025  1.00  0.00     0.164 HD
ENDROOT
BRANCH   1   7
HETATM    7  C   UNL     1       4.650   0.723  -0.093  1.00  0.00     0.127 A 
HETATM    8  C   UNL     1       3.330   1.100   0.031  1.00  0.00     0.076 A 
HETATM    9  C   UNL     1       2.580  -0.095   0.015  1.00  0.00     0.025 A 
HETATM   10  C   UNL     1       1.108  -0.237   0.115  1.00  0.00     0.070 C 
HETATM   11  N   UNL     1       3.371  -1.165  -0.108  1.00  0.00    -0.302 N 
HETATM   12  N   UNL     1       4.615  -0.650  -0.172  1.00  0.00    -0.281 N 
ATOM     13  HN  UNL     1       3.096  -2.147  -0.145  1.00  0.00     0.186 HD
HETATM   14  C   UNL     1       5.714  -1.575  -0.311  1.00  0.00     0.179 C 
ENDBRANCH   1   7
BRANCH   4  15
HETATM   15  C   UNL     1       6.985   4.995   0.011  1.00  0.00     0.130 C 
BRANCH  15  16
HETATM   16  C   UNL     1       8.392   5.575  -0.071  1.00  0.00     0.018 C 
HETATM   17  C   UNL     1       8.360   7.115   0.046  1.00  0.00     0.022 C 
HETATM   18  C   UNL     1       9.576   7.726  -0.655  1.00  0.00     0.141 C 
HETATM   19  S   UNL     1      10.433   6.397  -1.467  1.00  0.00     0.144 S 
HETATM   20  O   UNL     1      10.673   6.738  -2.852  1.00  0.00    -0.228 OA
HETATM   21  O   UNL     1      11.475   5.909  -0.588  1.00  0.00    -0.228 OA
HETATM   22  C   UNL     1       9.085   5.249  -1.390  1.00  0.00     0.146 C 
ENDBRANCH  15  16
ENDBRANCH   4  15
TORSDOF 3
