REMARK  3 active torsions:
REMARK  status: ('A' for Active; 'I' for Inactive)
REMARK    1  A    between atoms: N_5  and  C_6 
REMARK    2  A    between atoms: C_6  and  C_7 
REMARK    3  A    between atoms: C_7  and  O_8 
ROOT
HETATM    1  C   UNL     1       3.894   1.195  -2.405  1.00  0.00     0.070 C 
HETATM    2  C   UNL     1       4.012   0.616  -1.009  1.00  0.00     0.029 A 
HETATM    3  N   UNL     1       4.414  -0.612  -0.911  1.00  0.00    -0.300 N 
ATOM      4  HN  UNL     1       4.596  -1.171  -1.745  1.00  0.00     0.187 HD
HETATM    5  N   UNL     1       4.590  -1.144   0.347  1.00  0.00    -0.253 N 
HETATM    6  C   UNL     1       4.373  -0.441   1.518  1.00  0.00     0.283 A 
HETATM    7  O   UNL     1       4.591  -0.903   2.637  1.00  0.00    -0.265 OA
HETATM    8  C   UNL     1       3.848   0.939   1.365  1.00  0.00     0.121 A 
HETATM    9  C   UNL     1       3.563   1.655   2.562  1.00  0.00     0.105 C 
HETATM   10  N   UNL     1       3.305   2.288   3.497  1.00  0.00    -0.191 NA
HETATM   11  C   UNL     1       3.664   1.485   0.152  1.00  0.00    -0.012 A 
HETATM   12  C   UNL     1       3.137   2.869  -0.121  1.00  0.00     0.052 C 
ENDROOT
BRANCH   5  13
HETATM   13  C   UNL     1       5.198  -2.479   0.416  1.00  0.00     0.190 C 
BRANCH  13  14
HETATM   14  C   UNL     1       4.215  -3.646   0.135  1.00  0.00     0.076 C 
HETATM   15  C   UNL     1       2.969  -3.725   1.046  1.00  0.00     0.040 C 
HETATM   16  C   UNL     1       3.138  -4.459   2.379  1.00  0.00     0.003 C 
HETATM   17  C   UNL     1       3.924  -5.757   2.250  1.00  0.00     0.000 C 
HETATM   18  C   UNL     1       5.253  -5.503   1.557  1.00  0.00     0.003 C 
HETATM   19  C   UNL     1       5.003  -4.972   0.148  1.00  0.00     0.040 C 
BRANCH  14  20
HETATM   20  O   UNL     1       3.721  -3.471  -1.209  1.00  0.00    -0.388 OA
HETATM   21  H   UNL     1       3.547  -2.512  -1.308  1.00  0.00     0.210 HD
ENDBRANCH  14  20
ENDBRANCH  13  14
ENDBRANCH   5  13
TORSDOF 3
