REMARK  3 active torsions:
REMARK  status: ('A' for Active; 'I' for Inactive)
REMARK       I    between atoms: C_2  and  N_3 
REMARK       I    between atoms: C_2  and  N_10 
REMARK    1  A    between atoms: N_3  and  C_4 
REMARK    2  A    between atoms: N_10  and  C_11 
REMARK    3  A    between atoms: C_17  and  N_18 
ROOT
HETATM    1  C   UNL     1       4.438  -0.569   0.933  1.00  0.00     0.060 A 
HETATM    2  C   UNL     1       5.092  -1.486   0.102  1.00  0.00     0.029 A 
HETATM    3  C   UNL     1       6.475  -1.482   0.029  1.00  0.00     0.019 A 
HETATM    4  C   UNL     1       7.153  -0.560   0.801  1.00  0.00     0.090 A 
HETATM    5  N   UNL     1       6.550   0.318   1.631  1.00  0.00    -0.351 N 
ATOM      6  HN  UNL     1       7.106   0.971   2.183  1.00  0.00     0.166 HD
HETATM    7  C   UNL     1       5.196   0.322   1.723  1.00  0.00     0.125 A 
ENDROOT
BRANCH   1   8
HETATM    8  N   UNL     1       3.016  -0.547   0.922  1.00  0.00    -0.207 NA
HETATM    9  C   UNL     1       2.378  -0.021  -0.189  1.00  0.00     0.299 C 
HETATM   10  O   UNL     1       2.929   0.391  -1.200  1.00  0.00    -0.254 OA
HETATM   11  N   UNL     1       1.012  -0.018  -0.016  1.00  0.00    -0.343 N 
HETATM   12  H   UNL     1       0.638  -0.370   0.852  1.00  0.00     0.164 HD
HETATM   13  H   UNL     1       2.613  -1.450   1.127  1.00  0.00     0.138 HD
BRANCH  11  14
HETATM   14  C   UNL     1       0.103   0.399  -1.076  1.00  0.00     0.085 C 
HETATM   15  C   UNL     1      -1.141   1.092  -0.509  1.00  0.00     0.025 C 
HETATM   16  C   UNL     1      -2.100   0.130   0.191  1.00  0.00     0.002 C 
HETATM   17  C   UNL     1      -2.448  -1.071  -0.683  1.00  0.00     0.000 C 
HETATM   18  C   UNL     1      -1.201  -1.774  -1.211  1.00  0.00     0.002 C 
HETATM   19  C   UNL     1      -0.282  -0.802  -1.949  1.00  0.00     0.025 C 
ENDBRANCH  11  14
ENDBRANCH   1   8
BRANCH   7  20
HETATM   20  N   UNL     1       4.668   1.166   2.675  1.00  0.00    -0.362 N 
HETATM   21  C   UNL     1       5.294   2.478   2.880  1.00  0.00     0.150 C 
HETATM   22  C   UNL     1       5.303   2.817   4.378  1.00  0.00     0.187 C 
HETATM   23  O   UNL     1       3.986   2.730   4.954  1.00  0.00    -0.388 OA
HETATM   24  C   UNL     1       3.471   1.400   4.793  1.00  0.00     0.187 C 
HETATM   25  C   UNL     1       3.365   1.001   3.313  1.00  0.00     0.150 C 
ENDBRANCH   7  20
TORSDOF 3
