REMARK  7 active torsions:
REMARK  status: ('A' for Active; 'I' for Inactive)
REMARK    1  A    between atoms: N_5  and  C_6 
REMARK    2  A    between atoms: C_6  and  C_7 
REMARK       I    between atoms: C_7  and  N_9 
REMARK    3  A    between atoms: N_9  and  C_10 
REMARK    4  A    between atoms: C_10  and  C_11 
REMARK    5  A    between atoms: C_11  and  C_12 
REMARK    6  A    between atoms: C_12  and  O_13 
REMARK    7  A    between atoms: O_13  and  C_14 
ROOT
HETATM    1  C   UNL     1       8.683   0.809   0.399  1.00  0.00     0.235 C 
HETATM    2  O   UNL     1       9.188   1.292   1.410  1.00  0.00    -0.272 OA
HETATM    3  N   UNL     1       8.692   1.443  -0.830  1.00  0.00    -0.360 N 
HETATM    4  H   UNL     1       8.111   1.071  -1.573  1.00  0.00     0.162 HD
ENDROOT
BRANCH   3   5
HETATM    5  C   UNL     1       9.240   2.776  -1.002  1.00  0.00     0.125 C 
BRANCH   5   6
HETATM    6  C   UNL     1      10.717   2.736  -1.387  1.00  0.00     0.046 C 
BRANCH   6   7
HETATM    7  C   UNL     1      11.268   4.134  -1.652  1.00  0.00     0.169 C 
BRANCH   7   8
HETATM    8  O   UNL     1      11.117   4.911  -0.474  1.00  0.00    -0.386 OA
BRANCH   8   9
HETATM    9  C   UNL     1      11.588   6.256  -0.510  1.00  0.00     0.121 C 
HETATM   10  C   UNL     1      13.068   6.373  -0.877  1.00  0.00     0.032 C 
HETATM   11  C   UNL     1      13.547   7.810  -0.708  1.00  0.00     0.002 C 
HETATM   12  C   UNL     1      12.689   8.794  -1.504  1.00  0.00     0.000 C 
HETATM   13  C   UNL     1      11.189   8.618  -1.263  1.00  0.00     0.002 C 
HETATM   14  C   UNL     1      10.743   7.163  -1.409  1.00  0.00     0.032 C 
ENDBRANCH   8   9
ENDBRANCH   7   8
ENDBRANCH   6   7
ENDBRANCH   5   6
ENDBRANCH   3   5
BRANCH   1  15
HETATM   15  C   UNL     1       7.993  -0.559   0.399  1.00  0.00     0.234 C 
BRANCH  15  16
HETATM   16  N   UNL     1       6.864  -0.582   1.323  1.00  0.00    -0.316 N 
HETATM   17  C   UNL     1       7.065  -0.933   2.647  1.00  0.00     0.095 A 
HETATM   18  C   UNL     1       6.051  -0.944   3.523  1.00  0.00     0.024 A 
HETATM   19  C   UNL     1       4.719  -0.570   3.106  1.00  0.00    -0.055 A 
HETATM   20  C   UNL     1       3.625  -0.559   4.130  1.00  0.00     0.048 C 
HETATM   21  C   UNL     1       4.503  -0.210   1.830  1.00  0.00     0.081 A 
HETATM   22  C   UNL     1       5.620  -0.194   0.844  1.00  0.00     0.248 A 
HETATM   23  O   UNL     1       5.400   0.147  -0.314  1.00  0.00    -0.268 OA
ENDBRANCH  15  16
ENDBRANCH   1  15
TORSDOF 7
