REMARK  5 active torsions:
REMARK  status: ('A' for Active; 'I' for Inactive)
REMARK    1  A    between atoms: C_2  and  C_3 
REMARK    2  A    between atoms: C_3  and  C_5 
REMARK    3  A    between atoms: C_3  and  N_17 
REMARK    4  A    between atoms: C_5  and  N_6 
REMARK       I    between atoms: N_6  and  C_7 
REMARK       I    between atoms: C_7  and  N_9 
REMARK    5  A    between atoms: N_9  and  C_10 
ROOT
HETATM    1  N   UNL     1       3.110   1.768   3.254  1.00  0.00    -0.340 N 
HETATM    2  C   UNL     1       2.510   2.165   4.426  1.00  0.00     0.322 C 
HETATM    3  O   UNL     1       1.371   1.822   4.718  1.00  0.00    -0.247 OA
HETATM    4  N   UNL     1       3.351   2.927   5.195  1.00  0.00    -0.288 N 
HETATM    5  H   UNL     1       3.991   2.158   2.949  1.00  0.00     0.164 HD
HETATM    6  H   UNL     1       4.327   2.980   4.967  1.00  0.00     0.172 HD
ENDROOT
BRANCH   1   7
HETATM    7  C   UNL     1       2.419   0.902   2.307  1.00  0.00     0.165 C 
BRANCH   7   8
HETATM    8  C   UNL     1       2.873   1.132   0.823  1.00  0.00     0.172 C 
HETATM    9  C   UNL     1       2.391   2.567   0.460  1.00  0.00     0.051 C 
BRANCH   8  10
HETATM   10  C   UNL     1       2.151   0.123  -0.117  1.00  0.00     0.038 C 
HETATM   11  C   UNL     1       0.637  -0.004   0.013  1.00  0.00     0.007 C 
ENDBRANCH   8  10
BRANCH   8  12
HETATM   12  N   UNL     1       4.374   1.099   0.709  1.00  0.00     0.103 N 
HETATM   13  C   UNL     1       4.957   1.383  -0.624  1.00  0.00     0.299 C 
HETATM   14  C   UNL     1       5.107   0.162  -1.551  1.00  0.00     0.198 C 
HETATM   15  O   UNL     1       5.866  -0.877  -0.927  1.00  0.00    -0.388 OA
HETATM   16  C   UNL     1       5.275  -1.274   0.314  1.00  0.00     0.198 C 
HETATM   17  C   UNL     1       5.083  -0.078   1.266  1.00  0.00     0.299 C 
ENDBRANCH   8  12
ENDBRANCH   7   8
ENDBRANCH   1   7
BRANCH   4  18
HETATM   18  C   UNL     1       2.956   3.411   6.415  1.00  0.00     0.168 A 
HETATM   19  N   UNL     1       1.767   3.458   6.967  1.00  0.00    -0.279 N 
HETATM   20  N   UNL     1       1.813   3.977   8.249  1.00  0.00    -0.303 N 
ATOM     21  HN  UNL     1       0.911   3.149   6.506  1.00  0.00     0.189 HD
HETATM   22  C   UNL     1       3.040   4.295   8.599  1.00  0.00     0.160 A 
ATOM     23  HN  UNL     1       0.996   4.098   8.848  1.00  0.00     0.186 HD
HETATM   24  S   UNL     1       4.221   4.038   7.379  1.00  0.00    -0.046 SA
ENDBRANCH   4  18
TORSDOF 5
