REMARK  5 active torsions:
REMARK  status: ('A' for Active; 'I' for Inactive)
REMARK    1  A    between atoms: N_1  and  C_7 
REMARK    2  A    between atoms: N_2  and  C_10 
REMARK    3  A    between atoms: C_7  and  C_9 
REMARK    4  A    between atoms: C_8  and  C_9 
REMARK    5  A    between atoms: C_9  and  O_18 
ROOT
HETATM    1  N   UNL     1      -0.718   1.037  -0.071  1.00  0.00    -0.261 N 
HETATM    2  N   UNL     1      -0.621  -1.324  -0.086  1.00  0.00    -0.279 N 
HETATM    3  C   UNL     1      -1.373  -0.172  -0.292  1.00  0.00     0.333 C 
HETATM    4  C   UNL     1       0.669   1.146   0.007  1.00  0.00     0.291 C 
HETATM    5  C   UNL     1       1.408  -0.134   0.088  1.00  0.00     0.200 C 
HETATM    6  C   UNL     1       0.749  -1.286   0.063  1.00  0.00     0.146 C 
HETATM    7  O   UNL     1      -2.560  -0.229  -0.608  1.00  0.00    -0.246 OA
HETATM    8  O   UNL     1       1.281   2.212   0.010  1.00  0.00    -0.264 OA
HETATM    9  F   UNL     1       2.746  -0.071   0.228  1.00  0.00    -0.199 F 
ENDROOT
BRANCH   1  10
HETATM   10  C   UNL     1      -1.458   2.299  -0.098  1.00  0.00     0.178 C 
BRANCH  10  11
HETATM   11  C   UNL     1      -2.929   2.340   0.354  1.00  0.00     0.244 C 
BRANCH  11  12
HETATM   12  C   UNL     1      -3.142   1.774   1.768  1.00  0.00     0.414 C 
HETATM   13  F   UNL     1      -1.994   1.383   2.361  1.00  0.00    -0.168 F 
HETATM   14  F   UNL     1      -3.684   2.732   2.566  1.00  0.00    -0.168 F 
HETATM   15  F   UNL     1      -3.993   0.726   1.777  1.00  0.00    -0.168 F 
ENDBRANCH  11  12
BRANCH  11  16
HETATM   16  O   UNL     1      -3.362   3.726   0.246  1.00  0.00    -0.385 OA
HETATM   17  H   UNL     1      -3.399   4.097   1.150  1.00  0.00     0.210 HD
ENDBRANCH  11  16
ENDBRANCH  10  11
ENDBRANCH   1  10
BRANCH   2  18
HETATM   18  C   UNL     1      -1.357  -2.574   0.019  1.00  0.00     0.232 C 
HETATM   19  O   UNL     1      -0.687  -3.495   0.897  1.00  0.00    -0.366 OA
HETATM   20  C   UNL     1      -1.027  -4.824   0.471  1.00  0.00     0.170 C 
HETATM   21  C   UNL     1      -1.927  -4.694  -0.743  1.00  0.00     0.031 C 
HETATM   22  C   UNL     1      -1.559  -3.331  -1.281  1.00  0.00     0.056 C 
ENDBRANCH   2  18
TORSDOF 5
