REMARK  5 active torsions:
REMARK  status: ('A' for Active; 'I' for Inactive)
REMARK    1  A    between atoms: C_2  and  C_4 
REMARK    2  A    between atoms: C_4  and  N_5 
REMARK    3  A    between atoms: C_9  and  C_10 
REMARK    4  A    between atoms: C_10  and  N_11 
REMARK       I    between atoms: N_11  and  C_12 
REMARK       I    between atoms: C_12  and  N_14 
REMARK    5  A    between atoms: N_14  and  C_15 
ROOT
HETATM    1  N   UNL     1       6.652   1.192   3.469  1.00  0.00    -0.340 N 
HETATM    2  C   UNL     1       7.010   2.516   3.309  1.00  0.00     0.322 C 
HETATM    3  O   UNL     1       6.162   3.402   3.298  1.00  0.00    -0.247 OA
HETATM    4  N   UNL     1       8.358   2.667   3.142  1.00  0.00    -0.289 N 
HETATM    5  H   UNL     1       7.304   0.476   3.185  1.00  0.00     0.164 HD
HETATM    6  H   UNL     1       8.963   1.867   3.086  1.00  0.00     0.172 HD
ENDROOT
BRANCH   1   7
HETATM    7  C   UNL     1       5.249   0.811   3.409  1.00  0.00     0.158 C 
BRANCH   7   8
HETATM    8  C   UNL     1       4.800   0.423   1.989  1.00  0.00     0.167 C 
HETATM    9  O   UNL     1       5.607  -0.697   1.558  1.00  0.00    -0.381 OA
HETATM   10  C   UNL     1       5.191  -1.148   0.262  1.00  0.00     0.198 C 
HETATM   11  C   UNL     1       5.225  -0.019  -0.786  1.00  0.00     0.298 C 
HETATM   12  N   UNL     1       4.487   1.204  -0.398  1.00  0.00     0.093 N 
HETATM   13  C   UNL     1       4.918   1.579   0.970  1.00  0.00     0.305 C 
BRANCH  12  14
HETATM   14  C   UNL     1       3.031   1.048  -0.554  1.00  0.00     0.276 C 
BRANCH  14  15
HETATM   15  C   UNL     1       2.193   2.299  -0.192  1.00  0.00     0.006 C 
HETATM   16  C   UNL     1       2.587   3.530  -1.012  1.00  0.00     0.011 C 
HETATM   17  C   UNL     1       0.700   2.014  -0.383  1.00  0.00     0.011 C 
ENDBRANCH  14  15
ENDBRANCH  12  14
ENDBRANCH   7   8
ENDBRANCH   1   7
BRANCH   4  18
HETATM   18  C   UNL     1       8.912   3.892   2.897  1.00  0.00     0.152 A 
HETATM   19  N   UNL     1       8.349   5.071   2.927  1.00  0.00    -0.346 N 
HETATM   20  C   UNL     1       9.265   6.032   2.564  1.00  0.00     0.097 A 
ATOM     21  HN  UNL     1       7.378   5.252   3.181  1.00  0.00     0.167 HD
HETATM   22  C   UNL     1      10.523   5.561   2.254  1.00  0.00     0.070 A 
HETATM   23  S   UNL     1      10.566   3.857   2.467  1.00  0.00    -0.064 SA
ENDBRANCH   4  18
TORSDOF 5
