REMARK  7 active torsions:
REMARK  status: ('A' for Active; 'I' for Inactive)
REMARK    1  A    between atoms: O_2  and  C_3 
REMARK    2  A    between atoms: C_3  and  C_4 
REMARK    3  A    between atoms: C_4  and  N_5 
REMARK    4  A    between atoms: C_6  and  S_7 
REMARK    5  A    between atoms: S_7  and  C_8 
REMARK    6  A    between atoms: C_8  and  C_9 
REMARK       I    between atoms: C_9  and  N_11 
REMARK    7  A    between atoms: N_11  and  C_12 
ROOT
HETATM    1  N   UNL     1       4.770  -1.627  -2.077  1.00  0.00    -0.324 N 
HETATM    2  C   UNL     1       5.315  -1.135  -3.241  1.00  0.00     0.148 A 
HETATM    3  N   UNL     1       5.527  -2.084  -4.125  1.00  0.00    -0.335 N 
ATOM      4  HN  UNL     1       5.925  -1.984  -5.059  1.00  0.00     0.168 HD
HETATM    5  C   UNL     1       5.096  -3.244  -3.519  1.00  0.00     0.061 A 
HETATM    6  C   UNL     1       5.091  -4.564  -4.002  1.00  0.00     0.032 A 
HETATM    7  C   UNL     1       4.598  -5.588  -3.182  1.00  0.00     0.002 A 
HETATM    8  C   UNL     1       4.114  -5.310  -1.905  1.00  0.00     0.002 A 
HETATM    9  C   UNL     1       4.098  -4.002  -1.412  1.00  0.00     0.032 A 
HETATM   10  C   UNL     1       4.609  -2.991  -2.240  1.00  0.00     0.063 A 
ENDROOT
BRANCH   2  11
HETATM   11  S   UNL     1       5.713   0.539  -3.479  1.00  0.00    -0.084 SA
BRANCH  11  12
HETATM   12  C   UNL     1       5.641   0.674  -5.293  1.00  0.00     0.185 C 
BRANCH  12  13
HETATM   13  C   UNL     1       5.880   2.117  -5.716  1.00  0.00     0.227 C 
HETATM   14  O   UNL     1       4.979   2.823  -6.169  1.00  0.00    -0.273 OA
HETATM   15  N   UNL     1       7.187   2.560  -5.577  1.00  0.00    -0.356 N 
HETATM   16  H   UNL     1       7.854   1.957  -5.109  1.00  0.00     0.162 HD
BRANCH  15  17
HETATM   17  C   UNL     1       7.562   3.913  -5.861  1.00  0.00     0.084 A 
HETATM   18  C   UNL     1       8.237   4.260  -7.160  1.00  0.00     0.027 A 
HETATM   19  C   UNL     1       9.005   4.343  -5.874  1.00  0.00     0.027 A 
ENDBRANCH  15  17
ENDBRANCH  12  13
ENDBRANCH  11  12
ENDBRANCH   2  11
BRANCH   1  20
HETATM   20  C   UNL     1       4.346  -0.901  -0.896  1.00  0.00     0.157 C 
BRANCH  20  21
HETATM   21  C   UNL     1       5.160  -1.235   0.353  1.00  0.00     0.187 C 
BRANCH  21  22
HETATM   22  O   UNL     1       4.562  -0.582   1.476  1.00  0.00    -0.394 OA
HETATM   23  C   UNL     1       5.206  -0.936   2.695  1.00  0.00     0.201 C 
ENDBRANCH  21  22
ENDBRANCH  20  21
ENDBRANCH   1  20
TORSDOF 7
