REMARK  8 active torsions:
REMARK  status: ('A' for Active; 'I' for Inactive)
REMARK    1  A    between atoms: O_1  and  C_2 
REMARK    2  A    between atoms: C_2  and  C_3 
REMARK    3  A    between atoms: C_3  and  N_4 
REMARK    4  A    between atoms: N_4  and  C_5 
REMARK    5  A    between atoms: N_14  and  C_15 
REMARK    6  A    between atoms: C_15  and  C_16 
REMARK    7  A    between atoms: C_16  and  O_17 
REMARK    8  A    between atoms: C_16  and  C_18 
ROOT
HETATM    1  C   UNL     1       5.173  -2.714   0.398  1.00  0.00     0.681 A 
HETATM    2  N   UNL     1       6.427  -2.739   0.784  1.00  0.00    -0.190 N 
ATOM      3  HN  UNL     1       7.040  -1.937   0.929  1.00  0.00     0.184 HD
HETATM    4  C   UNL     1       6.747  -4.063   0.953  1.00  0.00     0.076 A 
HETATM    5  C   UNL     1       7.962  -4.645   1.349  1.00  0.00     0.032 A 
HETATM    6  C   UNL     1       8.057  -6.041   1.402  1.00  0.00     0.002 A 
HETATM    7  C   UNL     1       6.964  -6.843   1.070  1.00  0.00     0.002 A 
HETATM    8  C   UNL     1       5.739  -6.280   0.690  1.00  0.00     0.032 A 
HETATM    9  C   UNL     1       5.663  -4.883   0.649  1.00  0.00     0.079 A 
HETATM   10  N   UNL     1       4.655  -3.994   0.330  1.00  0.00    -0.178 N 
ENDROOT
BRANCH  10  11
HETATM   11  C   UNL     1       3.334  -4.358  -0.137  1.00  0.00     0.184 C 
BRANCH  11  12
HETATM   12  C   UNL     1       2.277  -4.503   0.972  1.00  0.00     0.170 C 
BRANCH  12  13
HETATM   13  O   UNL     1       2.134  -3.311   1.748  1.00  0.00    -0.389 OA
HETATM   14  H   UNL     1       2.147  -2.541   1.156  1.00  0.00     0.210 HD
ENDBRANCH  12  13
BRANCH  12  15
HETATM   15  C   UNL     1       0.884  -4.875   0.479  1.00  0.00    -0.025 A 
HETATM   16  C   UNL     1      -0.157  -5.017   1.419  1.00  0.00     0.010 A 
HETATM   17  C   UNL     1      -1.454  -5.361   1.023  1.00  0.00     0.004 A 
HETATM   18  C   UNL     1      -1.736  -5.573  -0.323  1.00  0.00     0.042 A 
HETATM   19  C   UNL     1      -0.720  -5.433  -1.257  1.00  0.00     0.117 A 
HETATM   20  F   UNL     1      -0.983  -5.633  -2.555  1.00  0.00    -0.206 F 
HETATM   21  C   UNL     1       0.575  -5.089  -0.873  1.00  0.00     0.052 A 
ENDBRANCH  12  15
ENDBRANCH  11  12
ENDBRANCH  10  11
BRANCH   1  22
HETATM   22  N   UNL     1       4.437  -1.623   0.080  1.00  0.00    -0.224 N 
HETATM   23  H   UNL     1       3.584  -1.717  -0.463  1.00  0.00     0.177 HD
BRANCH  22  24
HETATM   24  C   UNL     1       5.141  -0.418  -0.364  1.00  0.00     0.164 C 
BRANCH  24  25
HETATM   25  C   UNL     1       5.187  -0.394  -1.898  1.00  0.00     0.184 C 
BRANCH  25  26
HETATM   26  O   UNL     1       3.854  -0.480  -2.421  1.00  0.00    -0.399 OA
HETATM   27  H   UNL     1       3.933  -0.404  -3.388  1.00  0.00     0.209 HD
ENDBRANCH  25  26
ENDBRANCH  24  25
ENDBRANCH  22  24
ENDBRANCH   1  22
TORSDOF 8
