REMARK  5 active torsions:
REMARK  status: ('A' for Active; 'I' for Inactive)
REMARK    1  A    between atoms: C_5  and  N_6 
REMARK       I    between atoms: N_6  and  C_7 
REMARK       I    between atoms: C_7  and  N_9 
REMARK    2  A    between atoms: N_9  and  C_10 
REMARK    3  A    between atoms: C_10  and  C_15 
REMARK       I    between atoms: C_15  and  N_17 
REMARK    4  A    between atoms: N_17  and  C_18 
REMARK    5  A    between atoms: C_18  and  C_19 
ROOT
HETATM    1  N   UNL     1       6.936  -0.105  -0.465  1.00  0.00    -0.308 N 
HETATM    2  C   UNL     1       7.691  -1.254  -0.347  1.00  0.00     0.321 C 
HETATM    3  O   UNL     1       7.505  -2.148   0.469  1.00  0.00    -0.247 OA
HETATM    4  N   UNL     1       8.715  -1.319  -1.258  1.00  0.00    -0.325 N 
HETATM    5  H   UNL     1       7.323   0.639  -1.026  1.00  0.00     0.170 HD
HETATM    6  H   UNL     1       8.916  -0.528  -1.860  1.00  0.00     0.165 HD
ENDROOT
BRANCH   4   7
HETATM    7  C   UNL     1       9.697  -2.420  -1.308  1.00  0.00     0.115 C 
HETATM    8  C   UNL     1       9.045  -3.801  -1.512  1.00  0.00     0.041 C 
HETATM    9  C   UNL     1       9.787  -4.780  -0.597  1.00  0.00     0.003 C 
HETATM   10  C   UNL     1      10.903  -4.007   0.090  1.00  0.00     0.003 C 
HETATM   11  C   UNL     1      10.499  -2.543   0.000  1.00  0.00     0.041 C 
BRANCH   7  12
HETATM   12  C   UNL     1      10.654  -2.066  -2.497  1.00  0.00     0.246 C 
HETATM   13  O   UNL     1      10.599  -0.968  -3.057  1.00  0.00    -0.271 OA
HETATM   14  N   UNL     1      11.587  -3.017  -2.846  1.00  0.00    -0.359 N 
HETATM   15  H   UNL     1      11.493  -3.962  -2.503  1.00  0.00     0.162 HD
BRANCH  14  16
HETATM   16  C   UNL     1      12.559  -2.788  -3.889  1.00  0.00     0.127 C 
BRANCH  16  17
HETATM   17  C   UNL     1      13.506  -3.946  -3.945  1.00  0.00     0.003 A 
HETATM   18  C   UNL     1      14.454  -4.226  -2.803  1.00  0.00     0.007 A 
HETATM   19  C   UNL     1      14.989  -3.723  -4.115  1.00  0.00     0.007 A 
ENDBRANCH  16  17
ENDBRANCH  14  16
ENDBRANCH   7  12
ENDBRANCH   4   7
BRANCH   1  20
HETATM   20  C   UNL     1       5.808   0.203   0.337  1.00  0.00     0.051 A 
HETATM   21  C   UNL     1       5.127  -0.745   1.097  1.00  0.00     0.033 A 
HETATM   22  C   UNL     1       4.082  -0.361   1.934  1.00  0.00     0.027 A 
HETATM   23  C   UNL     1       3.717   0.977   1.984  1.00  0.00     0.005 A 
HETATM   24  C   UNL     1       2.666   1.437   2.951  1.00  0.00     0.068 C 
HETATM   25  N   UNL     1       4.317   1.919   1.217  1.00  0.00    -0.367 N 
HETATM   26  C   UNL     1       5.334   1.511   0.412  1.00  0.00     0.117 A 
ATOM     27  HN  UNL     1       4.018   2.894   1.242  1.00  0.00     0.165 HD
ENDBRANCH   1  20
TORSDOF 5
