REMARK  5 active torsions:
REMARK  status: ('A' for Active; 'I' for Inactive)
REMARK    1  A    between atoms: C_8  and  N_9 
REMARK       I    between atoms: N_9  and  C_10 
REMARK       I    between atoms: C_10  and  N_12 
REMARK    2  A    between atoms: N_12  and  C_13 
REMARK    3  A    between atoms: C_13  and  C_18 
REMARK       I    between atoms: C_18  and  N_20 
REMARK    4  A    between atoms: N_20  and  C_21 
REMARK    5  A    between atoms: C_21  and  C_22 
ROOT
HETATM    1  N   UNL     1       2.436  -2.495  -0.889  1.00  0.00    -0.307 N 
HETATM    2  C   UNL     1       1.129  -2.393  -1.286  1.00  0.00     0.321 C 
HETATM    3  O   UNL     1       0.635  -1.422  -1.845  1.00  0.00    -0.247 OA
HETATM    4  N   UNL     1       0.359  -3.498  -1.001  1.00  0.00    -0.325 N 
HETATM    5  H   UNL     1       2.763  -3.392  -0.566  1.00  0.00     0.170 HD
HETATM    6  H   UNL     1       0.824  -4.395  -1.018  1.00  0.00     0.165 HD
ENDROOT
BRANCH   4   7
HETATM    7  C   UNL     1      -1.090  -3.515  -1.337  1.00  0.00     0.115 C 
HETATM    8  C   UNL     1      -1.836  -2.263  -0.808  1.00  0.00     0.041 C 
HETATM    9  C   UNL     1      -3.193  -2.721  -0.277  1.00  0.00     0.003 C 
HETATM   10  C   UNL     1      -3.252  -4.221  -0.497  1.00  0.00     0.003 C 
HETATM   11  C   UNL     1      -1.795  -4.659  -0.581  1.00  0.00     0.041 C 
BRANCH   7  12
HETATM   12  C   UNL     1      -1.274  -3.700  -2.888  1.00  0.00     0.246 C 
HETATM   13  O   UNL     1      -1.777  -4.708  -3.384  1.00  0.00    -0.271 OA
HETATM   14  N   UNL     1      -0.830  -2.652  -3.661  1.00  0.00    -0.359 N 
HETATM   15  H   UNL     1      -0.283  -1.922  -3.201  1.00  0.00     0.162 HD
BRANCH  14  16
HETATM   16  C   UNL     1      -0.912  -2.638  -5.098  1.00  0.00     0.127 C 
BRANCH  16  17
HETATM   17  C   UNL     1      -0.942  -1.219  -5.575  1.00  0.00     0.003 A 
HETATM   18  C   UNL     1      -2.035  -0.278  -5.124  1.00  0.00     0.007 A 
HETATM   19  C   UNL     1      -2.005  -0.763  -6.545  1.00  0.00     0.007 A 
ENDBRANCH  16  17
ENDBRANCH  14  16
ENDBRANCH   7  12
ENDBRANCH   4   7
BRANCH   1  20
HETATM   20  C   UNL     1       3.385  -1.431  -0.968  1.00  0.00     0.058 A 
HETATM   21  C   UNL     1       4.764  -1.654  -0.821  1.00  0.00     0.032 A 
HETATM   22  C   UNL     1       5.360  -3.019  -0.642  1.00  0.00     0.070 C 
HETATM   23  N   UNL     1       5.686  -0.648  -0.850  1.00  0.00    -0.368 N 
HETATM   24  C   UNL     1       5.248   0.608  -1.067  1.00  0.00     0.088 A 
ATOM     25  HN  UNL     1       6.678  -0.841  -0.711  1.00  0.00     0.165 HD
HETATM   26  C   UNL     1       3.921   0.925  -1.249  1.00  0.00     0.019 A 
HETATM   27  C   UNL     1       2.989  -0.104  -1.183  1.00  0.00     0.033 A 
ENDBRANCH   1  20
TORSDOF 5
