REMARK  5 active torsions:
REMARK  status: ('A' for Active; 'I' for Inactive)
REMARK    1  A    between atoms: C_2  and  O_3 
REMARK    2  A    between atoms: O_3  and  C_4 
REMARK    3  A    between atoms: C_6  and  N_7 
REMARK       I    between atoms: N_7  and  C_8 
REMARK    4  A    between atoms: C_8  and  C_10 
REMARK    5  A    between atoms: C_10  and  N_11 
ROOT
HETATM    1  N   UNL     1       4.012   0.384  -5.219  1.00  0.00    -0.354 N 
HETATM    2  C   UNL     1       4.201   1.607  -5.830  1.00  0.00     0.237 C 
HETATM    3  O   UNL     1       4.326   2.670  -5.229  1.00  0.00    -0.272 OA
HETATM    4  H   UNL     1       3.912  -0.386  -5.881  1.00  0.00     0.162 HD
ENDROOT
BRANCH   1   5
HETATM    5  C   UNL     1       3.764   0.119  -3.800  1.00  0.00     0.098 C 
HETATM    6  C   UNL     1       3.424   1.256  -2.811  1.00  0.00     0.059 C 
HETATM    7  C   UNL     1       4.105   0.373  -1.719  1.00  0.00     0.133 C 
HETATM    8  C   UNL     1       5.012  -0.180  -2.889  1.00  0.00     0.006 C 
HETATM    9  C   UNL     1       5.476  -1.635  -2.923  1.00  0.00     0.014 C 
HETATM   10  C   UNL     1       6.311   0.616  -3.067  1.00  0.00     0.014 C 
HETATM   11  C   UNL     1       6.700  -1.646  -3.845  1.00  0.00     0.001 C 
HETATM   12  C   UNL     1       7.087  -0.192  -4.094  1.00  0.00     0.001 C 
BRANCH   7  13
HETATM   13  O   UNL     1       3.190  -0.554  -1.084  1.00  0.00    -0.385 OA
BRANCH  13  14
HETATM   14  C   UNL     1       3.678  -1.285   0.033  1.00  0.00     0.163 C 
HETATM   15  C   UNL     1       2.544  -2.127   0.582  1.00  0.00     0.033 C 
ENDBRANCH  13  14
ENDBRANCH   7  13
ENDBRANCH   1   5
BRANCH   2  16
HETATM   16  C   UNL     1       4.444   1.495  -7.332  1.00  0.00     0.255 C 
BRANCH  16  17
HETATM   17  N   UNL     1       3.388   0.716  -7.972  1.00  0.00    -0.249 N 
HETATM   18  N   UNL     1       3.564  -0.654  -8.048  1.00  0.00    -0.300 N 
HETATM   19  C   UNL     1       2.640  -1.339  -8.650  1.00  0.00     0.022 A 
ATOM     20  HN  UNL     1       4.386  -1.107  -7.648  1.00  0.00     0.187 HD
HETATM   21  C   UNL     1       2.802  -2.831  -8.770  1.00  0.00     0.069 C 
HETATM   22  C   UNL     1       1.420  -0.758  -9.250  1.00  0.00     0.031 A 
HETATM   23  C   UNL     1       1.254   0.558  -9.125  1.00  0.00     0.078 A 
HETATM   24  C   UNL     1       2.265   1.384  -8.446  1.00  0.00     0.262 A 
HETATM   25  O   UNL     1       2.074   2.593  -8.352  1.00  0.00    -0.267 OA
ENDBRANCH  16  17
ENDBRANCH   2  16
TORSDOF 5
