REMARK  7 active torsions:
REMARK  status: ('A' for Active; 'I' for Inactive)
REMARK    1  A    between atoms: C_2  and  C_4 
REMARK    2  A    between atoms: C_4  and  C_5 
REMARK    3  A    between atoms: C_4  and  C_16 
REMARK    4  A    between atoms: C_5  and  N_6 
REMARK       I    between atoms: N_6  and  C_7 
REMARK    5  A    between atoms: C_7  and  C_9 
REMARK    6  A    between atoms: C_9  and  C_10 
REMARK    7  A    between atoms: C_10  and  C_11 
ROOT
HETATM    1  C   UNL     1       2.534  -2.244   1.143  1.00  0.00     0.132 C 
ENDROOT
BRANCH   1   2
HETATM    2  C   UNL     1       2.930  -0.741   1.069  1.00  0.00     0.041 C 
BRANCH   2   3
HETATM    3  C   UNL     1       2.676   0.027   2.418  1.00  0.00    -0.013 C 
HETATM    4  C   UNL     1       1.202   0.293   2.749  1.00  0.00     0.010 C 
HETATM    5  C   UNL     1       3.362  -0.638   3.620  1.00  0.00     0.010 C 
ENDBRANCH   2   3
BRANCH   2   6
HETATM    6  C   UNL     1       2.417  -0.015  -0.189  1.00  0.00    -0.037 A 
HETATM    7  C   UNL     1       2.040  -0.689  -1.359  1.00  0.00     0.010 A 
HETATM    8  C   UNL     1       1.597   0.015  -2.479  1.00  0.00     0.018 A 
HETATM    9  C   UNL     1       1.561   1.393  -2.416  1.00  0.00     0.087 A 
HETATM   10  N   UNL     1       1.952   2.092  -1.336  1.00  0.00    -0.375 N 
HETATM   11  C   UNL     1       2.382   1.380  -0.266  1.00  0.00     0.095 A 
ATOM     12  HN  UNL     1       1.926   3.112  -1.323  1.00  0.00     0.164 HD
ENDBRANCH   2   6
ENDBRANCH   1   2
BRANCH   1  13
HETATM   13  N   UNL     1       1.106  -2.458   1.256  1.00  0.00    -0.360 N 
HETATM   14  C   UNL     1       0.538  -3.198   2.272  1.00  0.00     0.217 C 
HETATM   15  O   UNL     1       1.183  -3.757   3.149  1.00  0.00    -0.274 OA
HETATM   16  H   UNL     1       0.498  -2.000   0.587  1.00  0.00     0.162 HD
BRANCH  14  17
HETATM   17  C   UNL     1      -0.977  -3.227   2.240  1.00  0.00     0.103 C 
BRANCH  17  18
HETATM   18  C   UNL     1      -1.479  -3.952   0.999  1.00  0.00     0.014 C 
BRANCH  18  19
HETATM   19  C   UNL     1      -3.002  -4.052   0.921  1.00  0.00    -0.014 C 
HETATM   20  C   UNL     1      -3.648  -4.838   2.071  1.00  0.00     0.004 C 
HETATM   21  C   UNL     1      -4.834  -5.589   1.461  1.00  0.00     0.000 C 
HETATM   22  C   UNL     1      -4.875  -5.205  -0.009  1.00  0.00     0.000 C 
HETATM   23  C   UNL     1      -3.446  -4.802  -0.333  1.00  0.00     0.004 C 
ENDBRANCH  18  19
ENDBRANCH  17  18
ENDBRANCH  14  17
ENDBRANCH   1  13
TORSDOF 7
