REMARK  5 active torsions:
REMARK  status: ('A' for Active; 'I' for Inactive)
REMARK    1  A    between atoms: C_2  and  C_4 
REMARK       I    between atoms: C_4  and  N_6 
REMARK    2  A    between atoms: C_10  and  C_12 
REMARK       I    between atoms: C_12  and  N_14 
REMARK    3  A    between atoms: N_14  and  C_15 
REMARK    4  A    between atoms: C_15  and  C_16 
REMARK    5  A    between atoms: C_16  and  C_17 
ROOT
HETATM    1  C   UNL     1       7.636  -1.015   0.589  1.00  0.00     0.223 C 
HETATM    2  O   UNL     1       7.521  -1.767   1.551  1.00  0.00    -0.273 OA
HETATM    3  N   UNL     1       8.669  -1.121  -0.322  1.00  0.00    -0.360 N 
HETATM    4  H   UNL     1       8.558  -0.657  -1.216  1.00  0.00     0.162 HD
ENDROOT
BRANCH   1   5
HETATM    5  C   UNL     1       6.660   0.115   0.287  1.00  0.00     0.096 C 
HETATM    6  C   UNL     1       7.348   1.485   0.390  1.00  0.00     0.017 C 
HETATM    7  C   UNL     1       6.344   2.633   0.275  1.00  0.00     0.021 C 
HETATM    8  C   UNL     1       5.185   2.470   1.254  1.00  0.00     0.126 C 
HETATM    9  N   UNL     1       4.559   1.164   1.069  1.00  0.00    -0.351 N 
HETATM   10  C   UNL     1       3.172   1.087   1.015  1.00  0.00     0.223 C 
HETATM   11  C   UNL     1       5.469   0.029   1.246  1.00  0.00     0.139 C 
HETATM   12  O   UNL     1       2.461   2.082   1.179  1.00  0.00    -0.273 OA
BRANCH  10  13
HETATM   13  C   UNL     1       2.544  -0.249   0.604  1.00  0.00     0.070 C 
HETATM   14  C   UNL     1       1.074  -0.324   1.014  1.00  0.00     0.019 C 
HETATM   15  C   UNL     1       2.684  -0.410  -0.910  1.00  0.00     0.019 C 
ENDBRANCH  10  13
ENDBRANCH   1   5
BRANCH   3  16
HETATM   16  C   UNL     1       9.645  -2.195  -0.218  1.00  0.00     0.128 C 
BRANCH  16  17
HETATM   17  C   UNL     1      10.734  -2.064  -1.276  1.00  0.00     0.076 C 
BRANCH  17  18
HETATM   18  C   UNL     1      11.772  -3.147  -1.167  1.00  0.00     0.010 A 
HETATM   19  C   UNL     1      12.900  -2.970  -0.368  1.00  0.00     0.025 A 
HETATM   20  C   UNL     1      13.857  -3.980  -0.324  1.00  0.00     0.003 A 
HETATM   21  C   UNL     1      13.661  -5.138  -1.066  1.00  0.00     0.017 A 
HETATM   22  C   UNL     1      12.505  -5.240  -1.820  1.00  0.00     0.088 A 
HETATM   23  N   UNL     1      11.560  -4.275  -1.886  1.00  0.00    -0.369 N 
ATOM     24  HN  UNL     1      10.721  -4.392  -2.454  1.00  0.00     0.165 HD
ENDBRANCH  17  18
ENDBRANCH  16  17
ENDBRANCH   3  16
TORSDOF 5
