REMARK  3 active torsions:
REMARK  status: ('A' for Active; 'I' for Inactive)
REMARK    1  A    between atoms: C_4  and  N_9 
REMARK       I    between atoms: N_9  and  C_10 
REMARK       I    between atoms: C_10  and  N_12 
REMARK    2  A    between atoms: N_12  and  C_13 
REMARK    3  A    between atoms: C_15  and  C_19 
ROOT
HETATM    1  N   UNL     1       5.162   2.418  -1.161  1.00  0.00    -0.337 N 
HETATM    2  C   UNL     1       4.689   3.673  -1.395  1.00  0.00     0.322 C 
HETATM    3  O   UNL     1       3.519   3.919  -1.669  1.00  0.00    -0.247 OA
HETATM    4  N   UNL     1       5.573   4.699  -1.216  1.00  0.00    -0.293 N 
HETATM    5  H   UNL     1       6.173   2.317  -1.193  1.00  0.00     0.164 HD
HETATM    6  H   UNL     1       5.161   5.617  -1.237  1.00  0.00     0.172 HD
ENDROOT
BRANCH   1   7
HETATM    7  C   UNL     1       4.343   1.231  -1.246  1.00  0.00     0.104 C 
HETATM    8  C   UNL     1       4.814   0.163  -0.253  1.00  0.00     0.150 C 
HETATM    9  N   UNL     1       3.989  -1.031  -0.344  1.00  0.00    -0.355 N 
HETATM   10  C   UNL     1       3.810  -1.849   0.837  1.00  0.00     0.152 C 
HETATM   11  C   UNL     1       3.780  -1.614  -1.589  1.00  0.00     0.219 C 
HETATM   12  C   UNL     1       3.546  -0.629  -2.721  1.00  0.00     0.105 C 
HETATM   13  O   UNL     1       3.618  -2.821  -1.749  1.00  0.00    -0.273 OA
HETATM   14  C   UNL     1       4.380   0.639  -2.655  1.00  0.00     0.036 C 
ENDBRANCH   1   7
BRANCH   4  15
HETATM   15  C   UNL     1       6.915   4.588  -0.918  1.00  0.00     0.132 A 
HETATM   16  C   UNL     1       7.726   5.646  -0.450  1.00  0.00     0.086 A 
HETATM   17  C   UNL     1       8.953   5.069  -0.232  1.00  0.00     0.087 A 
HETATM   18  O   UNL     1       8.897   3.762  -0.593  1.00  0.00    -0.240 OA
HETATM   19  N   UNL     1       7.625   3.459  -1.018  1.00  0.00    -0.245 N 
ATOM     20  HN  UNL     1       7.289   2.553  -1.345  1.00  0.00     0.196 HD
BRANCH  17  21
HETATM   21  C   UNL     1      10.257   5.575   0.321  1.00  0.00     0.000 C 
HETATM   22  C   UNL     1      10.063   5.970   1.796  1.00  0.00     0.021 C 
HETATM   23  C   UNL     1      11.361   4.502   0.242  1.00  0.00     0.021 C 
HETATM   24  C   UNL     1      10.708   6.802  -0.488  1.00  0.00     0.021 C 
ENDBRANCH  17  21
ENDBRANCH   4  15
TORSDOF 3
