REMARK  5 active torsions:
REMARK  status: ('A' for Active; 'I' for Inactive)
REMARK    1  A    between atoms: C_2  and  N_3 
REMARK    2  A    between atoms: C_2  and  C_7 
REMARK       I    between atoms: N_3  and  C_4 
REMARK       I    between atoms: C_7  and  N_9 
REMARK    3  A    between atoms: N_9  and  C_10 
REMARK    4  A    between atoms: C_10  and  C_11 
REMARK    5  A    between atoms: C_14  and  N_18 
ROOT
HETATM    1  C   UNL     1       6.583  -2.834   1.160  1.00  0.00    -0.025 A 
HETATM    2  C   UNL     1       7.303  -1.645   1.161  1.00  0.00     0.014 A 
HETATM    3  C   UNL     1       8.698  -1.680   1.054  1.00  0.00     0.049 A 
HETATM    4  C   UNL     1       9.376  -2.894   0.923  1.00  0.00     0.103 A 
HETATM    5  N   UNL     1       8.675  -4.048   0.920  1.00  0.00    -0.352 N 
ATOM      6  HN  UNL     1       9.154  -4.944   0.830  1.00  0.00     0.166 HD
HETATM    7  C   UNL     1       7.320  -4.000   1.039  1.00  0.00     0.098 A 
ENDROOT
BRANCH   1   8
HETATM    8  C   UNL     1       5.087  -2.853   1.265  1.00  0.00     0.162 C 
BRANCH   8   9
HETATM    9  N   UNL     1       4.459  -2.777  -0.037  1.00  0.00    -0.355 N 
HETATM   10  C   UNL     1       3.086  -2.762  -0.171  1.00  0.00     0.240 C 
HETATM   11  O   UNL     1       2.325  -2.810   0.797  1.00  0.00    -0.271 OA
HETATM   12  H   UNL     1       5.050  -2.775  -0.858  1.00  0.00     0.162 HD
BRANCH  10  13
HETATM   13  C   UNL     1       2.569  -2.668  -1.624  1.00  0.00     0.172 C 
HETATM   14  C   UNL     1       3.028  -3.863  -2.452  1.00  0.00     0.042 C 
BRANCH  13  15
HETATM   15  N   UNL     1       1.110  -2.591  -1.617  1.00  0.00    -0.348 N 
HETATM   16  C   UNL     1       0.412  -1.934  -2.596  1.00  0.00     0.214 C 
HETATM   17  O   UNL     1       0.951  -1.371  -3.546  1.00  0.00    -0.274 OA
HETATM   18  C   UNL     1      -1.085  -1.973  -2.443  1.00  0.00     0.117 C 
HETATM   19  H   UNL     1       0.632  -2.984  -0.814  1.00  0.00     0.163 HD
ENDBRANCH  13  15
ENDBRANCH  10  13
ENDBRANCH   8   9
ENDBRANCH   1   8
BRANCH   4  20
HETATM   20  N   UNL     1      10.757  -2.943   0.867  1.00  0.00    -0.363 N 
HETATM   21  C   UNL     1      11.550  -1.914   0.178  1.00  0.00     0.150 C 
HETATM   22  C   UNL     1      12.151  -2.468  -1.124  1.00  0.00     0.187 C 
HETATM   23  O   UNL     1      12.910  -3.664  -0.891  1.00  0.00    -0.388 OA
HETATM   24  C   UNL     1      12.059  -4.683  -0.335  1.00  0.00     0.187 C 
HETATM   25  C   UNL     1      11.444  -4.238   1.001  1.00  0.00     0.150 C 
ENDBRANCH   4  20
TORSDOF 5
