REMARK  7 active torsions:
REMARK  status: ('A' for Active; 'I' for Inactive)
REMARK    1  A    between atoms: C_2  and  C_3 
REMARK    2  A    between atoms: C_3  and  N_5 
REMARK       I    between atoms: N_5  and  C_6 
REMARK    3  A    between atoms: C_6  and  C_8 
REMARK    4  A    between atoms: C_8  and  N_9 
REMARK    5  A    between atoms: C_12  and  C_13 
REMARK    6  A    between atoms: C_13  and  N_14 
REMARK    7  A    between atoms: N_18  and  C_19 
ROOT
HETATM    1  N   UNL     1       7.275   3.941  -0.285  1.00  0.00    -0.256 N 
HETATM    2  C   UNL     1       7.753   4.398  -1.503  1.00  0.00     0.273 C 
HETATM    3  O   UNL     1       7.748   3.714  -2.524  1.00  0.00    -0.266 OA
HETATM    4  C   UNL     1       8.292   5.781  -1.524  1.00  0.00     0.110 C 
HETATM    5  C   UNL     1       8.183   6.524  -0.417  1.00  0.00     0.123 C 
HETATM    6  N   UNL     1       7.659   6.021   0.754  1.00  0.00    -0.303 N 
HETATM    7  C   UNL     1       7.291   4.677   0.895  1.00  0.00     0.332 C 
HETATM    8  O   UNL     1       7.031   4.180   1.991  1.00  0.00    -0.246 OA
ENDROOT
BRANCH   1   9
HETATM    9  C   UNL     1       6.744   2.585  -0.216  1.00  0.00     0.239 C 
BRANCH   9  10
HETATM   10  C   UNL     1       5.261   2.592  -0.596  1.00  0.00     0.236 C 
HETATM   11  N   UNL     1       5.009   2.222  -1.902  1.00  0.00    -0.355 N 
HETATM   12  H   UNL     1       5.788   2.010  -2.512  1.00  0.00     0.162 HD
HETATM   13  O   UNL     1       4.381   2.968   0.173  1.00  0.00    -0.272 OA
BRANCH  11  14
HETATM   14  C   UNL     1       3.660   2.100  -2.443  1.00  0.00     0.080 C 
HETATM   15  C   UNL     1       3.157   0.668  -2.252  1.00  0.00     0.032 C 
BRANCH  14  16
HETATM   16  C   UNL     1       3.627   2.479  -3.930  1.00  0.00     0.020 C 
HETATM   17  C   UNL     1       4.047   3.921  -4.181  1.00  0.00     0.007 C 
ENDBRANCH  14  16
ENDBRANCH  11  14
ENDBRANCH   9  10
ENDBRANCH   1   9
BRANCH   4  18
HETATM   18  C   UNL     1       8.935   6.338  -2.784  1.00  0.00    -0.030 C 
BRANCH  18  19
HETATM   19  N   UNL     1       9.469   6.801  -3.828  1.00  0.00    -0.365 N 
ATOM     20  HN2 UNL     1       9.070   6.472  -2.949  1.00  0.00     0.165 HD
ATOM     21  HN1 UNL     1       9.900   7.175  -4.673  1.00  0.00     0.165 HD
ENDBRANCH  18  19
ENDBRANCH   4  18
BRANCH   6  22
HETATM   22  C   UNL     1       7.582   6.871   1.923  1.00  0.00     0.094 A 
HETATM   23  C   UNL     1       6.219   7.115   2.538  1.00  0.00     0.028 A 
HETATM   24  C   UNL     1       6.989   8.257   1.955  1.00  0.00     0.028 A 
ENDBRANCH   6  22
TORSDOF 7
