REMARK  7 active torsions:
REMARK  status: ('A' for Active; 'I' for Inactive)
REMARK    1  A    between atoms: C_2  and  C_3 
REMARK    2  A    between atoms: C_3  and  C_4 
REMARK    3  A    between atoms: C_3  and  N_9 
REMARK    4  A    between atoms: C_4  and  C_5 
REMARK    5  A    between atoms: C_5  and  N_6 
REMARK       I    between atoms: N_9  and  C_10 
REMARK       I    between atoms: C_10  and  N_12 
REMARK    6  A    between atoms: N_12  and  C_13 
REMARK    7  A    between atoms: N_17  and  C_20 
ROOT
HETATM    1  N   UNL     1       8.556  -0.733   1.709  1.00  0.00    -0.337 N 
HETATM    2  C   UNL     1       7.238  -0.932   1.438  1.00  0.00     0.334 C 
HETATM    3  O   UNL     1       6.542  -0.092   0.870  1.00  0.00    -0.246 OA
HETATM    4  N   UNL     1       6.708  -2.108   1.850  1.00  0.00    -0.140 N 
HETATM    5  H   UNL     1       9.060  -1.527   2.088  1.00  0.00     0.164 HD
HETATM    6  H   UNL     1       5.725  -2.245   1.684  1.00  0.00     0.189 HD
ENDROOT
BRANCH   4   7
HETATM    7  C   UNL     1       7.366  -3.207   2.315  1.00  0.00     0.702 C 
HETATM    8  N   UNL     1       8.725  -3.297   2.462  1.00  0.00    -0.185 N 
HETATM    9  C   UNL     1       8.916  -4.583   2.694  1.00  0.00     0.218 C 
ATOM     10  HN  UNL     1       9.420  -2.552   2.406  1.00  0.00     0.185 HD
HETATM   11  N   UNL     1       7.719  -5.226   2.672  1.00  0.00    -0.268 N 
HETATM   12  N   UNL     1       6.711  -4.334   2.571  1.00  0.00    -0.128 N 
ATOM     13  HN  UNL     1       5.707  -4.486   2.666  1.00  0.00     0.206 HD
BRANCH  11  14
HETATM   14  C   UNL     1       7.391  -6.644   2.553  1.00  0.00     0.109 C 
HETATM   15  C   UNL     1       8.574  -7.623   2.431  1.00  0.00     0.027 C 
HETATM   16  C   UNL     1       9.257  -7.635   1.057  1.00  0.00     0.002 C 
HETATM   17  C   UNL     1       8.285  -7.643  -0.122  1.00  0.00     0.000 C 
HETATM   18  C   UNL     1       7.163  -6.629   0.038  1.00  0.00     0.002 C 
HETATM   19  C   UNL     1       6.435  -6.864   1.360  1.00  0.00     0.027 C 
ENDBRANCH  11  14
ENDBRANCH   4   7
BRANCH   1  20
HETATM   20  C   UNL     1       9.276   0.482   1.364  1.00  0.00     0.097 C 
BRANCH  20  21
HETATM   21  C   UNL     1      10.395   0.682   2.400  1.00  0.00     0.021 C 
HETATM   22  C   UNL     1      11.112   2.014   2.281  1.00  0.00     0.007 C 
ENDBRANCH  20  21
BRANCH  20  23
HETATM   23  C   UNL     1       9.717   0.497  -0.110  1.00  0.00     0.129 C 
BRANCH  23  24
HETATM   24  C   UNL     1      10.770  -0.548  -0.438  1.00  0.00    -0.076 C 
BRANCH  24  25
HETATM   25  N   UNL     1      11.644  -1.415  -0.710  1.00  0.00    -0.370 N 
ATOM     26  HN2 UNL     1      10.946  -0.707  -0.483  1.00  0.00     0.165 HD
ATOM     27  HN1 UNL     1      12.351  -2.117  -0.930  1.00  0.00     0.165 HD
ENDBRANCH  24  25
ENDBRANCH  23  24
ENDBRANCH  20  23
ENDBRANCH   1  20
TORSDOF 7
