REMARK  2 active torsions:
REMARK  status: ('A' for Active; 'I' for Inactive)
REMARK    1  A    between atoms: C_7  and  N_8 
REMARK       I    between atoms: N_8  and  C_9 
REMARK       I    between atoms: C_9  and  N_11 
REMARK    2  A    between atoms: N_11  and  C_12 
ROOT
HETATM    1  N   UNL     1       6.384   0.716  -0.089  1.00  0.00    -0.288 N 
HETATM    2  C   UNL     1       7.450  -0.140  -0.205  1.00  0.00     0.322 C 
HETATM    3  O   UNL     1       7.408  -1.296  -0.606  1.00  0.00    -0.247 OA
HETATM    4  N   UNL     1       8.634   0.442   0.213  1.00  0.00    -0.338 N 
HETATM    5  H   UNL     1       6.512   1.683   0.149  1.00  0.00     0.172 HD
HETATM    6  H   UNL     1       8.696   1.441   0.090  1.00  0.00     0.164 HD
ENDROOT
BRANCH   1   7
HETATM    7  C   UNL     1       5.113   0.280  -0.360  1.00  0.00     0.169 A 
HETATM    8  N   UNL     1       4.680  -0.932  -0.606  1.00  0.00    -0.279 N 
HETATM    9  N   UNL     1       3.324  -0.961  -0.852  1.00  0.00    -0.296 N 
ATOM     10  HN  UNL     1       5.277  -1.759  -0.614  1.00  0.00     0.189 HD
HETATM   11  C   UNL     1       2.789   0.239  -0.799  1.00  0.00     0.066 A 
ATOM     12  HN  UNL     1       2.798  -1.812  -1.051  1.00  0.00     0.187 HD
HETATM   13  C   UNL     1       1.362   0.527  -1.085  1.00  0.00     0.078 C 
HETATM   14  S   UNL     1       3.902   1.487  -0.383  1.00  0.00    -0.038 SA
ENDBRANCH   1   7
BRANCH   4  15
HETATM   15  C   UNL     1       9.882  -0.299   0.086  1.00  0.00     0.086 C 
HETATM   16  C   UNL     1       9.914  -1.621   0.870  1.00  0.00     0.025 C 
HETATM   17  C   UNL     1      11.332  -1.772   1.418  1.00  0.00     0.002 C 
HETATM   18  C   UNL     1      12.120  -0.582   0.889  1.00  0.00     0.002 C 
HETATM   19  C   UNL     1      11.069   0.485   0.636  1.00  0.00     0.025 C 
ENDBRANCH   4  15
TORSDOF 2
