REMARK  6 active torsions:
REMARK  status: ('A' for Active; 'I' for Inactive)
REMARK    1  A    between atoms: C_2  and  C_3 
REMARK       I    between atoms: C_2  and  N_12 
REMARK    2  A    between atoms: C_3  and  N_4 
REMARK    3  A    between atoms: N_12  and  C_13 
REMARK    4  A    between atoms: C_13  and  C_14 
REMARK    5  A    between atoms: C_14  and  S_15 
REMARK    6  A    between atoms: S_15  and  C_16 
ROOT
HETATM    1  O   UNL     1       2.674   0.390  -1.436  1.00  0.00    -0.272 OA
HETATM    2  C   UNL     1       2.187   0.626  -0.333  1.00  0.00     0.235 C 
HETATM    3  N   UNL     1       2.934   0.992   0.768  1.00  0.00    -0.359 N 
HETATM    4  H   UNL     1       2.444   1.188   1.638  1.00  0.00     0.162 HD
ENDROOT
BRANCH   2   5
HETATM    5  C   UNL     1       0.676   0.625  -0.098  1.00  0.00     0.235 C 
BRANCH   5   6
HETATM    6  N   UNL     1       0.127   1.956  -0.346  1.00  0.00    -0.301 N 
HETATM    7  C   UNL     1      -0.340   2.283  -1.601  1.00  0.00     0.102 A 
HETATM    8  C   UNL     1      -0.802   3.501  -1.885  1.00  0.00     0.092 A 
HETATM    9  C   UNL     1      -0.801   4.525  -0.825  1.00  0.00     0.250 A 
HETATM   10  O   UNL     1      -1.162   5.673  -1.054  1.00  0.00    -0.268 OA
HETATM   11  N   UNL     1      -0.369   4.111   0.400  1.00  0.00    -0.275 N 
HETATM   12  C   UNL     1       0.156   2.879   0.692  1.00  0.00     0.329 A 
HETATM   13  H   UNL     1      -0.342   4.804   1.131  1.00  0.00     0.173 HD
HETATM   14  O   UNL     1       0.628   2.638   1.802  1.00  0.00    -0.246 OA
ENDBRANCH   5   6
ENDBRANCH   2   5
BRANCH   3  15
HETATM   15  C   UNL     1       4.389   1.012   0.750  1.00  0.00     0.132 C 
BRANCH  15  16
HETATM   16  C   UNL     1       4.952   2.016   1.761  1.00  0.00     0.094 C 
BRANCH  16  17
HETATM   17  S   UNL     1       6.778   2.005   1.723  1.00  0.00    -0.163 SA
BRANCH  17  18
HETATM   18  C   UNL     1       7.200   3.300   2.939  1.00  0.00     0.047 C 
HETATM   19  C   UNL     1       6.738   3.038   4.375  1.00  0.00     0.015 C 
HETATM   20  C   UNL     1       6.424   4.414   4.970  1.00  0.00     0.001 C 
HETATM   21  C   UNL     1       6.858   5.436   3.928  1.00  0.00     0.001 C 
HETATM   22  C   UNL     1       6.700   4.702   2.604  1.00  0.00     0.015 C 
ENDBRANCH  17  18
ENDBRANCH  16  17
ENDBRANCH  15  16
ENDBRANCH   3  15
TORSDOF 6
