REMARK  5 active torsions:
REMARK  status: ('A' for Active; 'I' for Inactive)
REMARK    1  A    between atoms: C_2  and  C_3 
REMARK    2  A    between atoms: C_6  and  C_7 
REMARK    3  A    between atoms: C_7  and  C_8 
REMARK    4  A    between atoms: C_8  and  N_9 
REMARK       I    between atoms: N_9  and  C_10 
REMARK    5  A    between atoms: C_10  and  C_12 
ROOT
HETATM    1  C   UNL     1       3.137  -4.036   2.997  1.00  0.00     0.084 C 
ENDROOT
BRANCH   1   2
HETATM    2  C   UNL     1       3.207  -2.588   2.618  1.00  0.00     0.053 A 
HETATM    3  N   UNL     1       2.815  -2.099   1.462  1.00  0.00    -0.356 N 
HETATM    4  C   UNL     1       3.039  -0.735   1.413  1.00  0.00     0.022 A 
ATOM      5  HN  UNL     1       2.404  -2.648   0.707  1.00  0.00     0.166 HD
HETATM    6  C   UNL     1       3.575  -0.192   2.568  1.00  0.00     0.003 A 
HETATM    7  S   UNL     1       3.828  -1.433   3.725  1.00  0.00    -0.080 SA
HETATM    8  C   UNL     1       3.923   1.222   2.870  1.00  0.00     0.058 C 
BRANCH   4   9
HETATM    9  C   UNL     1       2.679  -0.019   0.150  1.00  0.00     0.054 C 
HETATM   10  C   UNL     1       1.229   0.436   0.144  1.00  0.00     0.011 C 
ENDBRANCH   4   9
ENDBRANCH   1   2
BRANCH   1  11
HETATM   11  C   UNL     1       2.535  -4.879   1.872  1.00  0.00     0.129 C 
BRANCH  11  12
HETATM   12  N   UNL     1       2.489  -6.296   2.199  1.00  0.00    -0.360 N 
HETATM   13  C   UNL     1       3.585  -7.108   2.003  1.00  0.00     0.224 C 
HETATM   14  O   UNL     1       4.657  -6.688   1.579  1.00  0.00    -0.273 OA
HETATM   15  H   UNL     1       1.605  -6.698   2.485  1.00  0.00     0.162 HD
BRANCH  13  16
HETATM   16  C   UNL     1       3.339  -8.562   2.344  1.00  0.00     0.103 C 
HETATM   17  C   UNL     1       3.043  -8.783   3.815  1.00  0.00     0.042 C 
HETATM   18  C   UNL     1       3.758 -10.076   4.165  1.00  0.00     0.168 C 
HETATM   19  O   UNL     1       4.407 -10.546   2.981  1.00  0.00    -0.390 OA
HETATM   20  C   UNL     1       4.562  -9.421   2.109  1.00  0.00     0.181 C 
ENDBRANCH  13  16
ENDBRANCH  11  12
ENDBRANCH   1  11
TORSDOF 5
