REMARK  3 active torsions:
REMARK  status: ('A' for Active; 'I' for Inactive)
REMARK    1  A    between atoms: C_2  and  C_3 
REMARK    2  A    between atoms: C_2  and  N_10 
REMARK    3  A    between atoms: C_3  and  N_4 
REMARK       I    between atoms: N_10  and  C_11 
REMARK       I    between atoms: C_11  and  N_13 
REMARK       I    between atoms: N_16  and  C_19 
ROOT
HETATM    1  N   UNL     1       3.126  -1.488   0.580  1.00  0.00    -0.337 N 
HETATM    2  C   UNL     1       4.483  -1.621   0.455  1.00  0.00     0.318 C 
HETATM    3  O   UNL     1       5.198  -0.655   0.203  1.00  0.00    -0.247 OA
HETATM    4  N   UNL     1       4.973  -2.902   0.598  1.00  0.00    -0.331 N 
HETATM    5  C   UNL     1       6.406  -3.117   0.379  1.00  0.00     0.147 C 
HETATM    6  C   UNL     1       6.651  -4.406  -0.417  1.00  0.00     0.145 C 
HETATM    7  N   UNL     1       6.002  -5.554   0.232  1.00  0.00    -0.349 N 
HETATM    8  C   UNL     1       4.567  -5.358   0.490  1.00  0.00     0.145 C 
HETATM    9  C   UNL     1       4.292  -4.041   1.239  1.00  0.00     0.147 C 
HETATM   10  C   UNL     1       6.571  -6.780   0.517  1.00  0.00     0.215 C 
HETATM   11  O   UNL     1       5.916  -7.693   1.029  1.00  0.00    -0.274 OA
HETATM   12  C   UNL     1       8.035  -7.023   0.233  1.00  0.00     0.117 C 
HETATM   13  H   UNL     1       2.596  -2.302   0.310  1.00  0.00     0.164 HD
ENDROOT
BRANCH   1  14
HETATM   14  C   UNL     1       2.485  -0.184   0.344  1.00  0.00     0.100 C 
HETATM   15  C   UNL     1       1.022  -0.405  -0.036  1.00  0.00     0.034 C 
BRANCH  14  16
HETATM   16  C   UNL     1       2.644   0.729   1.578  1.00  0.00     0.153 C 
BRANCH  16  17
HETATM   17  N   UNL     1       2.124   2.076   1.427  1.00  0.00    -0.350 N 
HETATM   18  C   UNL     1       1.141   2.649   2.188  1.00  0.00     0.108 A 
HETATM   19  C   UNL     1       1.084   3.957   1.767  1.00  0.00     0.106 A 
HETATM   20  N   UNL     1       1.992   4.184   0.766  1.00  0.00    -0.361 N 
HETATM   21  C   UNL     1       2.613   3.038   0.591  1.00  0.00     0.182 A 
ATOM     22  HN  UNL     1       2.152   5.057   0.263  1.00  0.00     0.166 HD
ENDBRANCH  16  17
ENDBRANCH  14  16
ENDBRANCH   1  14
TORSDOF 3
