REMARK  7 active torsions:
REMARK  status: ('A' for Active; 'I' for Inactive)
REMARK    1  A    between atoms: C_2  and  C_3 
REMARK    2  A    between atoms: C_3  and  N_4 
REMARK       I    between atoms: N_4  and  C_5 
REMARK    3  A    between atoms: C_5  and  C_7 
REMARK    4  A    between atoms: C_7  and  N_9 
REMARK       I    between atoms: N_9  and  C_10 
REMARK    5  A    between atoms: C_10  and  C_12 
REMARK    6  A    between atoms: C_12  and  C_13 
REMARK    7  A    between atoms: C_16  and  C_19 
ROOT
HETATM    1  N   UNL     1       7.423  -3.366  -2.131  1.00  0.00    -0.348 N 
HETATM    2  C   UNL     1       8.772  -3.460  -2.377  1.00  0.00     0.224 C 
HETATM    3  O   UNL     1       9.567  -2.595  -2.010  1.00  0.00    -0.273 OA
HETATM    4  H   UNL     1       6.774  -4.052  -2.505  1.00  0.00     0.163 HD
ENDROOT
BRANCH   2   5
HETATM    5  C   UNL     1       9.202  -4.696  -3.150  1.00  0.00     0.160 C 
BRANCH   5   6
HETATM    6  C   UNL     1      10.210  -5.498  -2.392  1.00  0.00     0.025 A 
HETATM    7  C   UNL     1      11.477  -5.089  -2.018  1.00  0.00     0.077 A 
HETATM    8  S   UNL     1      12.282  -6.340  -1.175  1.00  0.00    -0.086 SA
HETATM    9  C   UNL     1      10.899  -7.345  -1.364  1.00  0.00     0.054 A 
HETATM   10  N   UNL     1       9.896  -6.802  -2.026  1.00  0.00    -0.356 N 
ATOM     11  HN  UNL     1       9.016  -7.271  -2.239  1.00  0.00     0.166 HD
BRANCH   9  12
HETATM   12  C   UNL     1      10.890  -8.733  -0.776  1.00  0.00     0.035 C 
HETATM   13  C   UNL     1       9.747  -8.880   0.228  1.00  0.00     0.016 C 
HETATM   14  C   UNL     1      10.784  -9.792  -1.874  1.00  0.00     0.016 C 
ENDBRANCH   9  12
ENDBRANCH   5   6
ENDBRANCH   2   5
BRANCH   1  15
HETATM   15  C   UNL     1       6.842  -2.256  -1.384  1.00  0.00     0.172 C 
HETATM   16  C   UNL     1       6.924  -2.520   0.117  1.00  0.00     0.042 C 
BRANCH  15  17
HETATM   17  C   UNL     1       5.379  -2.066  -1.830  1.00  0.00     0.240 C 
HETATM   18  N   UNL     1       4.761  -0.947  -1.312  1.00  0.00    -0.359 N 
HETATM   19  H   UNL     1       5.261  -0.362  -0.655  1.00  0.00     0.162 HD
HETATM   20  O   UNL     1       4.817  -2.857  -2.588  1.00  0.00    -0.271 OA
BRANCH  18  21
HETATM   21  C   UNL     1       3.378  -0.621  -1.598  1.00  0.00     0.122 C 
BRANCH  21  22
HETATM   22  C   UNL     1       2.397  -1.348  -0.680  1.00  0.00     0.015 C 
HETATM   23  C   UNL     1       2.562  -0.963   0.783  1.00  0.00     0.006 C 
ENDBRANCH  21  22
ENDBRANCH  18  21
ENDBRANCH  15  17
ENDBRANCH   1  15
TORSDOF 7
