REMARK  5 active torsions:
REMARK  status: ('A' for Active; 'I' for Inactive)
REMARK    1  A    between atoms: C_4  and  C_5 
REMARK       I    between atoms: C_5  and  N_7 
REMARK    2  A    between atoms: N_7  and  C_8 
REMARK    3  A    between atoms: C_8  and  C_9 
REMARK    4  A    between atoms: C_9  and  C_10 
REMARK    5  A    between atoms: C_13  and  N_14 
ROOT
HETATM    1  C   UNL     1       5.753   3.685  -0.541  1.00  0.00     0.130 C 
ENDROOT
BRANCH   1   2
HETATM    2  N   UNL     1       4.594   2.864  -0.860  1.00  0.00    -0.360 N 
HETATM    3  C   UNL     1       4.577   1.516  -0.583  1.00  0.00     0.223 C 
HETATM    4  O   UNL     1       5.529   0.946  -0.067  1.00  0.00    -0.273 OA
HETATM    5  H   UNL     1       3.817   3.283  -1.354  1.00  0.00     0.162 HD
BRANCH   3   6
HETATM    6  C   UNL     1       3.308   0.813  -0.961  1.00  0.00     0.095 A 
HETATM    7  C   UNL     1       2.433   0.070   0.056  1.00  0.00    -0.027 A 
HETATM    8  C   UNL     1       0.924   0.179  -0.062  1.00  0.00     0.016 C 
HETATM    9  C   UNL     1       2.868  -0.048   1.501  1.00  0.00     0.016 C 
HETATM   10  C   UNL     1       3.185  -0.709  -1.039  1.00  0.00    -0.027 A 
HETATM   11  C   UNL     1       4.343  -1.612  -0.667  1.00  0.00     0.016 C 
HETATM   12  C   UNL     1       2.412  -1.281  -2.213  1.00  0.00     0.016 C 
ENDBRANCH   3   6
ENDBRANCH   1   2
BRANCH   1  13
HETATM   13  C   UNL     1       6.858   3.635  -1.596  1.00  0.00     0.107 C 
BRANCH  13  14
HETATM   14  C   UNL     1       6.420   4.261  -2.864  1.00  0.00     0.164 A 
HETATM   15  N   UNL     1       6.453   5.523  -3.232  1.00  0.00    -0.171 N 
HETATM   16  C   UNL     1       5.906   5.469  -4.478  1.00  0.00     0.697 A 
ATOM     17  HN  UNL     1       6.799   6.333  -2.717  1.00  0.00     0.186 HD
HETATM   18  N   UNL     1       5.509   4.258  -4.871  1.00  0.00    -0.090 N 
HETATM   19  O   UNL     1       5.864   3.439  -3.799  1.00  0.00    -0.209 OA
ATOM     20  HN  UNL     1       5.055   3.994  -5.745  1.00  0.00     0.213 HD
BRANCH  16  21
HETATM   21  N   UNL     1       5.790   6.608  -5.162  1.00  0.00    -0.233 N 
HETATM   22  H   UNL     1       5.887   7.476  -4.649  1.00  0.00     0.174 HD
HETATM   23  H   UNL     1       5.152   6.634  -5.943  1.00  0.00     0.174 HD
ENDBRANCH  16  21
ENDBRANCH  13  14
ENDBRANCH   1  13
TORSDOF 5
