REMARK  5 active torsions:
REMARK  status: ('A' for Active; 'I' for Inactive)
REMARK    1  A    between atoms: N_5  and  C_6 
REMARK    2  A    between atoms: C_6  and  C_7 
REMARK    3  A    between atoms: C_7  and  N_8 
REMARK       I    between atoms: N_8  and  C_9 
REMARK    4  A    between atoms: C_9  and  C_11 
REMARK    5  A    between atoms: C_11  and  N_12 
ROOT
HETATM    1  N   UNL     1       6.566   0.175  -3.846  1.00  0.00    -0.358 N 
HETATM    2  C   UNL     1       7.250   1.207  -4.437  1.00  0.00     0.235 C 
HETATM    3  O   UNL     1       8.449   1.069  -4.681  1.00  0.00    -0.272 OA
HETATM    4  H   UNL     1       7.117  -0.672  -3.766  1.00  0.00     0.162 HD
ENDROOT
BRANCH   1   5
HETATM    5  C   UNL     1       5.122   0.070  -3.841  1.00  0.00     0.152 C 
BRANCH   5   6
HETATM    6  C   UNL     1       4.566  -0.912  -2.805  1.00  0.00     0.292 C 
BRANCH   6   7
HETATM    7  N   UNL     1       3.094  -0.849  -2.724  1.00  0.00     0.090 N 
HETATM    8  C   UNL     1       2.562  -1.732  -1.679  1.00  0.00     0.273 C 
HETATM    9  C   UNL     1       2.654  -3.219  -2.036  1.00  0.00     0.034 C 
HETATM   10  C   UNL     1       2.045  -3.540  -3.411  1.00  0.00    -0.015 C 
HETATM   11  C   UNL     1       0.515  -3.551  -3.353  1.00  0.00     0.010 C 
HETATM   12  C   UNL     1       2.546  -2.549  -4.471  1.00  0.00     0.034 C 
HETATM   13  C   UNL     1       2.409  -1.100  -4.000  1.00  0.00     0.273 C 
ENDBRANCH   6   7
ENDBRANCH   5   6
ENDBRANCH   1   5
BRANCH   2  14
HETATM   14  C   UNL     1       6.511   2.525  -4.715  1.00  0.00     0.234 C 
BRANCH  14  15
HETATM   15  N   UNL     1       6.138   3.207  -3.470  1.00  0.00    -0.316 N 
HETATM   16  C   UNL     1       7.085   3.338  -2.464  1.00  0.00     0.095 A 
HETATM   17  C   UNL     1       6.757   3.825  -1.262  1.00  0.00     0.017 A 
HETATM   18  C   UNL     1       5.406   4.248  -1.003  1.00  0.00     0.007 A 
HETATM   19  C   UNL     1       4.479   4.190  -1.968  1.00  0.00     0.074 A 
HETATM   20  C   UNL     1       4.829   3.656  -3.313  1.00  0.00     0.247 A 
HETATM   21  O   UNL     1       3.962   3.603  -4.184  1.00  0.00    -0.268 OA
ENDBRANCH  14  15
ENDBRANCH   2  14
TORSDOF 5
