REMARK  4 active torsions:
REMARK  status: ('A' for Active; 'I' for Inactive)
REMARK    1  A    between atoms: S_2  and  C_3 
REMARK    2  A    between atoms: C_3  and  C_5 
REMARK       I    between atoms: C_5  and  N_7 
REMARK    3  A    between atoms: N_7  and  C_8 
REMARK    4  A    between atoms: C_11  and  N_15 
ROOT
HETATM    1  C   UNL     1       7.053   0.540  -2.866  1.00  0.00     0.050 A 
HETATM    2  C   UNL     1       7.702   1.720  -3.179  1.00  0.00     0.035 A 
HETATM    3  C   UNL     1       9.094   1.722  -3.307  1.00  0.00     0.051 A 
HETATM    4  C   UNL     1       9.827   0.544  -3.198  1.00  0.00     0.103 A 
HETATM    5  N   UNL     1       9.185  -0.617  -2.922  1.00  0.00    -0.350 N 
ATOM      6  HN  UNL     1       9.705  -1.491  -2.848  1.00  0.00     0.166 HD
HETATM    7  C   UNL     1       7.836  -0.599  -2.745  1.00  0.00     0.119 A 
ENDROOT
BRANCH   1   8
HETATM    8  N   UNL     1       5.659   0.568  -2.692  1.00  0.00    -0.325 N 
HETATM    9  C   UNL     1       4.995  -0.157  -1.716  1.00  0.00     0.235 C 
HETATM   10  O   UNL     1       5.542  -0.906  -0.911  1.00  0.00    -0.272 OA
HETATM   11  H   UNL     1       5.153   1.377  -3.041  1.00  0.00     0.169 HD
BRANCH   9  12
HETATM   12  C   UNL     1       3.475   0.018  -1.717  1.00  0.00     0.135 C 
HETATM   13  C   UNL     1       2.870  -0.853  -2.810  1.00  0.00     0.031 C 
BRANCH  12  14
HETATM   14  S   UNL     1       2.978   1.769  -1.990  1.00  0.00    -0.160 SA
HETATM   15  C   UNL     1       3.640   2.510  -0.474  1.00  0.00     0.090 C 
ENDBRANCH  12  14
ENDBRANCH   9  12
ENDBRANCH   1   8
BRANCH   4  16
HETATM   16  N   UNL     1      11.202   0.531  -3.301  1.00  0.00    -0.362 N 
HETATM   17  C   UNL     1      11.950   1.482  -4.134  1.00  0.00     0.156 C 
HETATM   18  C   UNL     1      12.624   0.755  -5.318  1.00  0.00     0.136 C 
HETATM   19  C   UNL     1      13.519   1.713  -6.095  1.00  0.00     0.041 C 
HETATM   20  O   UNL     1      13.449  -0.329  -4.859  1.00  0.00    -0.378 OA
HETATM   21  C   UNL     1      12.658  -1.302  -4.146  1.00  0.00     0.136 C 
HETATM   22  C   UNL     1      13.609  -2.416  -3.724  1.00  0.00     0.041 C 
HETATM   23  C   UNL     1      11.969  -0.667  -2.917  1.00  0.00     0.156 C 
ENDBRANCH   4  16
TORSDOF 4
