REMARK  1 active torsions:
REMARK  status: ('A' for Active; 'I' for Inactive)
REMARK    1  A    between atoms: N_1  and  C_7 
ROOT
HETATM    1  N   UNL     1      -0.608  -1.286  -0.026  1.00  0.00    -0.279 N 
HETATM    2  C   UNL     1      -0.268  -0.670  -1.225  1.00  0.00     0.331 A 
HETATM    3  N   UNL     1       0.429   0.507  -1.116  1.00  0.00    -0.273 N 
HETATM    4  C   UNL     1      -0.190  -0.778   1.192  1.00  0.00     0.146 A 
HETATM    5  C   UNL     1       0.528   0.341   1.274  1.00  0.00     0.199 A 
HETATM    6  C   UNL     1       0.895   1.069   0.044  1.00  0.00     0.289 A 
HETATM    7  O   UNL     1      -0.546  -1.120  -2.335  1.00  0.00    -0.246 OA
HETATM    8  O   UNL     1       1.576   2.089   0.051  1.00  0.00    -0.265 OA
HETATM    9  F   UNL     1       0.949   0.847   2.447  1.00  0.00    -0.199 F 
HETATM   10  H   UNL     1       0.674   0.970  -1.978  1.00  0.00     0.173 HD
ENDROOT
BRANCH   1  11
HETATM   11  C   UNL     1      -1.377  -2.517  -0.107  1.00  0.00     0.232 C 
HETATM   12  O   UNL     1      -2.238  -2.670   1.035  1.00  0.00    -0.366 OA
HETATM   13  C   UNL     1      -2.381  -4.076   1.292  1.00  0.00     0.170 C 
HETATM   14  C   UNL     1      -1.547  -4.817   0.263  1.00  0.00     0.031 C 
HETATM   15  C   UNL     1      -0.529  -3.779  -0.141  1.00  0.00     0.056 C 
ENDBRANCH   1  11
TORSDOF 1
