REMARK  7 active torsions:
REMARK  status: ('A' for Active; 'I' for Inactive)
REMARK    1  A    between atoms: N_4  and  C_5 
REMARK    2  A    between atoms: C_5  and  C_6 
REMARK    3  A    between atoms: C_6  and  O_7 
REMARK    4  A    between atoms: O_7  and  C_8 
REMARK    5  A    between atoms: C_11  and  C_12 
REMARK    6  A    between atoms: C_12  and  C_13 
REMARK    7  A    between atoms: C_13  and  N_14 
ROOT
HETATM    1  C   UNL     1       4.591   3.732  -0.284  1.00  0.00     0.196 C 
ENDROOT
BRANCH   1   2
HETATM    2  C   UNL     1       5.592   2.575  -0.306  1.00  0.00     0.160 C 
BRANCH   2   3
HETATM    3  N   UNL     1       6.278   2.416  -1.593  1.00  0.00    -0.306 N 
HETATM    4  C   UNL     1       7.524   2.991  -1.771  1.00  0.00     0.125 A 
HETATM    5  C   UNL     1       8.230   2.832  -2.896  1.00  0.00     0.117 A 
HETATM    6 CL   UNL     1       9.784   3.523  -3.101  1.00  0.00    -0.077 Cl
HETATM    7  C   UNL     1       7.651   2.006  -3.984  1.00  0.00     0.272 A 
HETATM    8  N   UNL     1       6.378   1.546  -3.757  1.00  0.00    -0.274 N 
HETATM    9  O   UNL     1       8.251   1.738  -5.018  1.00  0.00    -0.266 OA
HETATM   10  C   UNL     1       5.654   1.690  -2.601  1.00  0.00     0.329 A 
HETATM   11  H   UNL     1       5.961   0.988  -4.483  1.00  0.00     0.173 HD
HETATM   12  O   UNL     1       4.535   1.195  -2.496  1.00  0.00    -0.246 OA
ENDBRANCH   2   3
ENDBRANCH   1   2
BRANCH   1  13
HETATM   13  O   UNL     1       5.286   4.985  -0.318  1.00  0.00    -0.350 OA
BRANCH  13  14
HETATM   14  C   UNL     1       4.495   6.107  -0.330  1.00  0.00     0.068 A 
HETATM   15  C   UNL     1       3.108   6.121  -0.176  1.00  0.00     0.037 A 
HETATM   16  C   UNL     1       2.400   7.325  -0.230  1.00  0.00     0.011 A 
HETATM   17  C   UNL     1       3.066   8.537  -0.445  1.00  0.00    -0.046 A 
HETATM   18  C   UNL     1       4.463   8.525  -0.564  1.00  0.00     0.011 A 
HETATM   19  C   UNL     1       5.169   7.317  -0.508  1.00  0.00     0.037 A 
BRANCH  17  20
HETATM   20  C   UNL     1       2.284   9.826  -0.509  1.00  0.00     0.142 C 
BRANCH  20  21
HETATM   21  C   UNL     1       2.099  10.439   0.870  1.00  0.00    -0.073 C 
BRANCH  21  22
HETATM   22  N   UNL     1       1.945  10.948   2.013  1.00  0.00    -0.369 N 
ATOM     23  HN2 UNL     1       2.045  10.567   1.072  1.00  0.00     0.165 HD
ATOM     24  HN1 UNL     1       1.821  11.359   2.938  1.00  0.00     0.165 HD
ENDBRANCH  21  22
ENDBRANCH  20  21
ENDBRANCH  17  20
ENDBRANCH  13  14
ENDBRANCH   1  13
TORSDOF 7
