REMARK  4 active torsions:
REMARK  status: ('A' for Active; 'I' for Inactive)
REMARK    1  A    between atoms: N_1  and  C_8 
REMARK    2  A    between atoms: N_2  and  C_7 
REMARK    3  A    between atoms: C_8  and  C_9 
REMARK       I    between atoms: C_9  and  N_10 
REMARK    4  A    between atoms: N_10  and  C_11 
ROOT
HETATM    1  C   UNL     1      -1.086   2.031  -0.271  1.00  0.00     0.240 C 
ENDROOT
BRANCH   1   2
HETATM    2  N   UNL     1      -0.511   0.761  -0.729  1.00  0.00    -0.255 N 
HETATM    3  C   UNL     1       0.032   0.735  -2.012  1.00  0.00     0.334 C 
HETATM    4  N   UNL     1       1.044  -0.209  -2.229  1.00  0.00    -0.279 N 
HETATM    5  O   UNL     1      -0.346   1.510  -2.889  1.00  0.00    -0.246 OA
HETATM    6  C   UNL     1       1.209  -1.282  -1.374  1.00  0.00     0.146 C 
HETATM    7  C   UNL     1       0.502  -1.386  -0.250  1.00  0.00     0.200 C 
HETATM    8  C   UNL     1      -0.397  -0.287   0.169  1.00  0.00     0.292 C 
HETATM    9  F   UNL     1       0.612  -2.447   0.572  1.00  0.00    -0.199 F 
HETATM   10  O   UNL     1      -0.994  -0.325   1.241  1.00  0.00    -0.264 OA
BRANCH   4  11
HETATM   11  C   UNL     1       1.761  -0.135  -3.505  1.00  0.00     0.232 C 
HETATM   12  O   UNL     1       2.860  -1.069  -3.576  1.00  0.00    -0.366 OA
HETATM   13  C   UNL     1       3.796  -0.564  -4.551  1.00  0.00     0.170 C 
HETATM   14  C   UNL     1       3.346   0.832  -4.936  1.00  0.00     0.031 C 
HETATM   15  C   UNL     1       2.432   1.205  -3.795  1.00  0.00     0.056 C 
ENDBRANCH   4  11
ENDBRANCH   1   2
BRANCH   1  16
HETATM   16  C   UNL     1      -2.597   2.322  -0.370  1.00  0.00     0.236 C 
HETATM   17  N   UNL     1      -3.440   1.248  -0.302  1.00  0.00    -0.351 N 
HETATM   18  H   UNL     1      -3.032   0.338  -0.131  1.00  0.00     0.163 HD
HETATM   19  O   UNL     1      -3.011   3.485  -0.375  1.00  0.00    -0.272 OA
BRANCH  17  20
HETATM   20  C   UNL     1      -4.909   1.307  -0.319  1.00  0.00     0.118 C 
HETATM   21  C   UNL     1      -5.611   1.496   1.020  1.00  0.00    -0.029 C 
HETATM   22  C   UNL     1      -6.835   2.189   1.100  1.00  0.00    -0.050 C 
HETATM   23  C   UNL     1      -5.181   0.771   2.147  1.00  0.00     0.010 C 
HETATM   24  C   UNL     1      -7.333   3.076  -0.010  1.00  0.00     0.039 C 
HETATM   25  C   UNL     1      -7.667   2.012   2.223  1.00  0.00     0.007 C 
HETATM   26  C   UNL     1      -6.333   3.315  -1.137  1.00  0.00     0.007 C 
HETATM   27  C   UNL     1      -5.520   2.079  -1.506  1.00  0.00     0.030 C 
HETATM   28  C   UNL     1      -7.270   1.206   3.283  1.00  0.00     0.001 C 
HETATM   29  C   UNL     1      -6.009   0.622   3.268  1.00  0.00     0.001 C 
ENDBRANCH  17  20
ENDBRANCH   1  16
TORSDOF 4
