REMARK  8 active torsions:
REMARK  status: ('A' for Active; 'I' for Inactive)
REMARK    1  A    between atoms: C_2  and  C_3 
REMARK    2  A    between atoms: C_3  and  O_4 
REMARK    3  A    between atoms: C_3  and  C_5 
REMARK    4  A    between atoms: C_5  and  N_6 
REMARK       I    between atoms: N_9  and  C_12 
REMARK    5  A    between atoms: C_12  and  C_14 
REMARK    6  A    between atoms: N_19  and  C_20 
REMARK    7  A    between atoms: C_20  and  C_21 
REMARK    8  A    between atoms: C_21  and  O_22 
ROOT
HETATM    1  N   UNL     1       5.221  -1.921  -1.746  1.00  0.00     0.094 N 
HETATM    2  C   UNL     1       4.325  -2.911  -2.359  1.00  0.00     0.292 C 
HETATM    3  C   UNL     1       3.819  -4.018  -1.419  1.00  0.00     0.156 C 
HETATM    4  N   UNL     1       4.823  -4.617  -0.537  1.00  0.00    -0.345 N 
HETATM    5  C   UNL     1       5.803  -3.670   0.008  1.00  0.00     0.156 C 
HETATM    6  C   UNL     1       6.295  -2.657  -1.045  1.00  0.00     0.292 C 
HETATM    7  C   UNL     1       4.751  -5.877   0.067  1.00  0.00     0.255 C 
HETATM    8  O   UNL     1       5.569  -6.218   0.928  1.00  0.00    -0.267 OA
ENDROOT
BRANCH   7   9
HETATM    9  C   UNL     1       3.756  -6.918  -0.410  1.00  0.00     0.048 C 
HETATM   10  C   UNL     1       4.141  -8.321  -0.360  1.00  0.00     0.024 C 
HETATM   11  C   UNL     1       3.349  -9.282  -0.853  1.00  0.00     0.075 C 
HETATM   12  C   UNL     1       2.086  -8.924  -1.550  1.00  0.00     0.247 C 
HETATM   13  O   UNL     1       1.426  -9.808  -2.088  1.00  0.00    -0.268 OA
HETATM   14  N   UNL     1       1.742  -7.572  -1.508  1.00  0.00    -0.322 N 
HETATM   15  C   UNL     1       2.517  -6.634  -0.838  1.00  0.00     0.111 C 
BRANCH  14  16
HETATM   16  C   UNL     1       0.634  -7.104  -2.360  1.00  0.00     0.158 C 
BRANCH  16  17
HETATM   17  C   UNL     1       1.031  -6.018  -3.385  1.00  0.00     0.187 C 
BRANCH  17  18
HETATM   18  O   UNL     1       2.117  -6.451  -4.208  1.00  0.00    -0.394 OA
HETATM   19  C   UNL     1       2.498  -5.465  -5.160  1.00  0.00     0.201 C 
ENDBRANCH  17  18
ENDBRANCH  16  17
ENDBRANCH  14  16
ENDBRANCH   7   9
BRANCH   1  20
HETATM   20  C   UNL     1       4.483  -0.985  -0.883  1.00  0.00     0.303 C 
BRANCH  20  21
HETATM   21  C   UNL     1       5.327   0.172  -0.295  1.00  0.00     0.146 C 
BRANCH  21  22
HETATM   22  C   UNL     1       5.974   1.042  -1.380  1.00  0.00     0.029 C 
HETATM   23  C   UNL     1       6.916   2.082  -0.790  1.00  0.00     0.007 C 
ENDBRANCH  21  22
BRANCH  21  24
HETATM   24  O   UNL     1       4.487   0.978   0.537  1.00  0.00    -0.394 OA
HETATM   25  H   UNL     1       3.770   1.334  -0.015  1.00  0.00     0.210 HD
ENDBRANCH  21  24
ENDBRANCH  20  21
ENDBRANCH   1  20
TORSDOF 8
