REMARK  10 active torsions:
REMARK  status: ('A' for Active; 'I' for Inactive)
REMARK    1  A    between atoms: N_2  and  C_14 
REMARK    2  A    between atoms: C_3  and  N_7 
REMARK    3  A    between atoms: N_7  and  C_9 
REMARK    4  A    between atoms: N_7  and  C_18 
REMARK    5  A    between atoms: C_14  and  C_20 
REMARK    6  A    between atoms: C_15  and  C_18 
REMARK       I    between atoms: C_15  and  N_21 
REMARK    7  A    between atoms: C_19  and  N_21 
REMARK    8  A    between atoms: C_20  and  C_27 
REMARK    9  A    between atoms: C_20  and  C_28 
REMARK   10  A    between atoms: C_28  and  O_30 
ROOT
HETATM    1  C   UNL     1       0.047  -0.715  -0.456  1.00  0.00     0.117 A 
HETATM    2  N   UNL     1       1.273   1.072  -0.230  1.00  0.00    -0.327 N 
HETATM    3  C   UNL     1      -1.162  -1.411  -0.645  1.00  0.00     0.115 A 
HETATM    4  C   UNL     1      -0.013   0.668  -0.448  1.00  0.00     0.140 A 
HETATM    5  N   UNL     1       1.345  -1.149  -0.266  1.00  0.00    -0.346 N 
ATOM      6  HN  UNL     1       1.679  -2.112  -0.227  1.00  0.00     0.167 HD
HETATM    7  C   UNL     1       2.056  -0.049  -0.147  1.00  0.00     0.185 A 
HETATM    8  N   UNL     1      -2.296  -0.662  -0.786  1.00  0.00    -0.341 N 
ATOM      9  HN  UNL     1      -3.201  -1.115  -0.914  1.00  0.00     0.167 HD
HETATM   10  N   UNL     1      -1.101   1.440  -0.593  1.00  0.00    -0.336 N 
ATOM     11  HN  UNL     1      -1.093   2.460  -0.583  1.00  0.00     0.168 HD
HETATM   12  C   UNL     1      -2.204   0.685  -0.754  1.00  0.00     0.183 A 
ENDROOT
BRANCH   3  13
HETATM   13  N   UNL     1      -1.216  -2.835  -0.693  1.00  0.00    -0.254 NA
BRANCH  13  14
HETATM   14  C   UNL     1      -2.509  -3.404  -0.211  1.00  0.00     0.065 A 
HETATM   15  C   UNL     1      -2.864  -3.464   1.249  1.00  0.00     0.022 A 
HETATM   16  C   UNL     1      -2.522  -4.724   0.510  1.00  0.00     0.022 A 
ENDBRANCH  13  14
BRANCH  13  17
HETATM   17  C   UNL     1      -0.915  -3.259  -2.089  1.00  0.00     0.200 C 
BRANCH  17  18
HETATM   18  C   UNL     1       0.476  -3.836  -2.358  1.00  0.00     0.231 C 
HETATM   19  N   UNL     1       1.474  -3.655  -1.428  1.00  0.00    -0.355 N 
HETATM   20  H   UNL     1       1.314  -2.978  -0.679  1.00  0.00     0.162 HD
HETATM   21  O   UNL     1       0.684  -4.434  -3.422  1.00  0.00    -0.272 OA
BRANCH  19  22
HETATM   22  C   UNL     1       2.812  -4.105  -1.685  1.00  0.00     0.084 A 
HETATM   23  C   UNL     1       3.994  -3.646  -0.878  1.00  0.00     0.027 A 
HETATM   24  C   UNL     1       3.827  -3.170  -2.290  1.00  0.00     0.027 A 
ENDBRANCH  19  22
ENDBRANCH  17  18
ENDBRANCH  13  17
ENDBRANCH   3  13
BRANCH   2  25
HETATM   25  C   UNL     1       1.729   2.439  -0.092  1.00  0.00     0.138 C 
BRANCH  25  26
HETATM   26  C   UNL     1       1.207   3.168   1.166  1.00  0.00     0.034 C 
BRANCH  26  27
HETATM   27  C   UNL     1       1.534   2.381   2.470  1.00  0.00     0.019 C 
HETATM   28  C   UNL     1       0.963   2.965   3.760  1.00  0.00     0.172 C 
HETATM   29  O   UNL     1       2.073   3.409   4.541  1.00  0.00    -0.391 OA
HETATM   30  C   UNL     1       3.171   2.556   4.223  1.00  0.00     0.168 C 
HETATM   31  C   UNL     1       3.022   2.219   2.755  1.00  0.00     0.033 C 
ENDBRANCH  26  27
BRANCH  26  32
HETATM   32  C   UNL     1       1.731   4.615   1.105  1.00  0.00     0.170 C 
BRANCH  32  33
HETATM   33  O   UNL     1       1.230   5.428   2.147  1.00  0.00    -0.400 OA
HETATM   34  H   UNL     1       0.259   5.422   2.107  1.00  0.00     0.209 HD
ENDBRANCH  32  33
ENDBRANCH  26  32
ENDBRANCH  25  26
ENDBRANCH   2  25
TORSDOF 10
