REMARK  3 active torsions:
REMARK  status: ('A' for Active; 'I' for Inactive)
REMARK    1  A    between atoms: N_1  and  C_7 
REMARK    2  A    between atoms: C_16  and  C_19 
REMARK    3  A    between atoms: O_18  and  C_19 
ROOT
HETATM    1  N   UNL     1       1.455   1.213   0.131  1.00  0.00    -0.300 N 
HETATM    2  C   UNL     1       1.456   0.259  -0.853  1.00  0.00     0.144 A 
HETATM    3  C   UNL     1       0.820  -0.830  -0.292  1.00  0.00     0.146 A 
HETATM    4  N   UNL     1       0.408  -0.567   0.989  1.00  0.00    -0.345 N 
ATOM      5  HN  UNL     1      -0.092  -1.188   1.625  1.00  0.00     0.167 HD
HETATM    6  C   UNL     1       0.805   0.671   1.213  1.00  0.00     0.188 A 
HETATM    7  N   UNL     1       1.986   0.368  -2.099  1.00  0.00    -0.336 N 
ATOM      8  HN  UNL     1       2.440   1.211  -2.451  1.00  0.00     0.168 HD
HETATM    9  C   UNL     1       0.691  -2.033  -1.089  1.00  0.00     0.277 A 
HETATM   10  N   UNL     1       1.244  -1.887  -2.353  1.00  0.00    -0.318 N 
HETATM   11  C   UNL     1       1.850  -0.724  -2.793  1.00  0.00     0.185 A 
HETATM   12  O   UNL     1       0.171  -3.087  -0.732  1.00  0.00    -0.266 OA
HETATM   13  H   UNL     1       1.184  -2.699  -2.948  1.00  0.00     0.169 HD
ENDROOT
BRANCH   1  14
HETATM   14  C   UNL     1       2.083   2.515   0.065  1.00  0.00     0.231 C 
HETATM   15  O   UNL     1       2.485   2.947   1.385  1.00  0.00    -0.359 OA
HETATM   16  C   UNL     1       2.475   4.392   1.401  1.00  0.00     0.147 C 
HETATM   17  C   UNL     1       1.930   4.850   0.053  1.00  0.00     0.038 C 
HETATM   18  C   UNL     1       1.208   3.631  -0.473  1.00  0.00     0.057 C 
BRANCH  16  19
HETATM   19  C   UNL     1       1.676   4.908   2.605  1.00  0.00     0.196 C 
BRANCH  19  20
HETATM   20  O   UNL     1       0.293   4.585   2.492  1.00  0.00    -0.398 OA
HETATM   21  H   UNL     1      -0.125   4.827   3.338  1.00  0.00     0.209 HD
ENDBRANCH  19  20
ENDBRANCH  16  19
ENDBRANCH   1  14
TORSDOF 3
