REMARK  4 active torsions:
REMARK  status: ('A' for Active; 'I' for Inactive)
REMARK    1  A    between atoms: C_8  and  C_9 
REMARK    2  A    between atoms: C_9  and  C_10 
REMARK    3  A    between atoms: C_10  and  N_11 
REMARK       I    between atoms: N_11  and  C_12 
REMARK       I    between atoms: C_12  and  N_14 
REMARK       I    between atoms: N_18  and  C_21 
REMARK    4  A    between atoms: C_21  and  C_23 
ROOT
HETATM    1  N   UNL     1      -0.135  -3.416  -0.890  1.00  0.00    -0.343 N 
HETATM    2  C   UNL     1      -1.279  -3.529  -0.130  1.00  0.00     0.318 C 
HETATM    3  O   UNL     1      -1.648  -2.603   0.591  1.00  0.00    -0.247 OA
HETATM    4  N   UNL     1      -1.975  -4.723  -0.224  1.00  0.00    -0.333 N 
HETATM    5  C   UNL     1      -1.695  -5.814  -1.162  1.00  0.00     0.129 C 
HETATM    6  C   UNL     1      -1.260  -7.081  -0.428  1.00  0.00     0.040 C 
HETATM    7  C   UNL     1      -2.443  -7.970  -0.037  1.00  0.00     0.127 C 
HETATM    8  N   UNL     1      -3.554  -7.306   0.640  1.00  0.00    -0.350 N 
HETATM    9  C   UNL     1      -3.267  -6.113   1.443  1.00  0.00     0.145 C 
HETATM   10  C   UNL     1      -3.209  -4.846   0.576  1.00  0.00     0.147 C 
HETATM   11  C   UNL     1      -4.888  -7.712   0.545  1.00  0.00     0.224 C 
HETATM   12  O   UNL     1      -5.804  -7.128   1.118  1.00  0.00    -0.273 OA
HETATM   13  H   UNL     1       0.394  -4.268  -0.987  1.00  0.00     0.164 HD
ENDROOT
BRANCH   1  14
HETATM   14  C   UNL     1       0.633  -2.181  -0.761  1.00  0.00     0.129 C 
BRANCH  14  15
HETATM   15  C   UNL     1       1.830  -2.079  -1.710  1.00  0.00     0.059 C 
BRANCH  15  16
HETATM   16  C   UNL     1       2.528  -0.737  -1.585  1.00  0.00    -0.048 A 
HETATM   17  C   UNL     1       3.593  -0.494  -0.699  1.00  0.00    -0.040 A 
HETATM   18  C   UNL     1       4.174  -1.544   0.200  1.00  0.00     0.050 C 
HETATM   19  C   UNL     1       4.120   0.800  -0.656  1.00  0.00     0.094 A 
HETATM   20  N   UNL     1       3.682   1.837  -1.403  1.00  0.00    -0.375 N 
HETATM   21  C   UNL     1       2.657   1.579  -2.236  1.00  0.00     0.088 A 
ATOM     22  HN  UNL     1       4.104   2.763  -1.339  1.00  0.00     0.164 HD
HETATM   23  C   UNL     1       2.058   0.334  -2.360  1.00  0.00     0.024 A 
ENDBRANCH  15  16
ENDBRANCH  14  15
ENDBRANCH   1  14
BRANCH  11  24
HETATM   24  C   UNL     1      -5.212  -8.861  -0.355  1.00  0.00     0.078 A 
HETATM   25  C   UNL     1      -6.044  -8.570  -1.588  1.00  0.00     0.015 A 
HETATM   26  C   UNL     1      -6.616  -9.406  -0.483  1.00  0.00     0.015 A 
ENDBRANCH  11  24
TORSDOF 4
