REMARK  6 active torsions:
REMARK  status: ('A' for Active; 'I' for Inactive)
REMARK    1  A    between atoms: C_2  and  S_3 
REMARK    2  A    between atoms: S_3  and  N_6 
REMARK    3  A    between atoms: C_9  and  C_12 
REMARK       I    between atoms: C_12  and  N_14 
REMARK    4  A    between atoms: N_14  and  C_15 
REMARK    5  A    between atoms: C_15  and  C_16 
REMARK    6  A    between atoms: C_16  and  C_17 
ROOT
HETATM    1  C   UNL     1       7.240  -3.676  -2.506  1.00  0.00     0.221 C 
HETATM    2  O   UNL     1       7.862  -3.571  -1.455  1.00  0.00    -0.273 OA
HETATM    3  N   UNL     1       7.861  -3.748  -3.735  1.00  0.00    -0.360 N 
HETATM    4  H   UNL     1       7.329  -4.123  -4.512  1.00  0.00     0.162 HD
ENDROOT
BRANCH   1   5
HETATM    5  C   UNL     1       5.715  -3.712  -2.578  1.00  0.00     0.081 C 
HETATM    6  C   UNL     1       5.192  -2.513  -3.381  1.00  0.00     0.034 C 
HETATM    7  C   UNL     1       5.283  -1.217  -2.582  1.00  0.00     0.136 C 
HETATM    8  N   UNL     1       4.589  -1.333  -1.277  1.00  0.00    -0.311 N 
HETATM    9  C   UNL     1       5.175  -2.422  -0.447  1.00  0.00     0.136 C 
HETATM   10  C   UNL     1       5.089  -3.762  -1.175  1.00  0.00     0.034 C 
BRANCH   8  11
HETATM   11  S   UNL     1       2.896  -1.201  -1.226  1.00  0.00     0.228 S 
HETATM   12  O   UNL     1       2.489  -1.299   0.160  1.00  0.00    -0.206 OA
HETATM   13  O   UNL     1       2.341  -2.090  -2.223  1.00  0.00    -0.206 OA
BRANCH  11  14
HETATM   14  C   UNL     1       2.625   0.488  -1.756  1.00  0.00     0.159 C 
HETATM   15  C   UNL     1       1.148   0.829  -1.732  1.00  0.00     0.023 C 
ENDBRANCH  11  14
ENDBRANCH   8  11
ENDBRANCH   1   5
BRANCH   3  16
HETATM   16  C   UNL     1       9.311  -3.775  -3.809  1.00  0.00     0.128 C 
BRANCH  16  17
HETATM   17  C   UNL     1       9.811  -3.776  -5.247  1.00  0.00     0.076 C 
BRANCH  17  18
HETATM   18  C   UNL     1      11.313  -3.777  -5.296  1.00  0.00     0.010 A 
HETATM   19  C   UNL     1      12.024  -2.580  -5.327  1.00  0.00     0.025 A 
HETATM   20  C   UNL     1      13.414  -2.626  -5.371  1.00  0.00     0.003 A 
HETATM   21  C   UNL     1      14.055  -3.859  -5.372  1.00  0.00     0.017 A 
HETATM   22  C   UNL     1      13.274  -5.001  -5.323  1.00  0.00     0.088 A 
HETATM   23  N   UNL     1      11.923  -4.986  -5.285  1.00  0.00    -0.369 N 
ATOM     24  HN  UNL     1      11.384  -5.851  -5.249  1.00  0.00     0.165 HD
ENDBRANCH  17  18
ENDBRANCH  16  17
ENDBRANCH   3  16
TORSDOF 6
