REMARK  8 active torsions:
REMARK  status: ('A' for Active; 'I' for Inactive)
REMARK    1  A    between atoms: C_2  and  C_3 
REMARK    2  A    between atoms: C_3  and  C_4 
REMARK    3  A    between atoms: C_3  and  C_6 
REMARK    4  A    between atoms: C_3  and  N_8 
REMARK    5  A    between atoms: C_6  and  O_7 
REMARK    6  A    between atoms: N_8  and  C_9 
REMARK    7  A    between atoms: C_9  and  C_10 
REMARK    8  A    between atoms: C_10  and  N_11 
ROOT
HETATM    1  N   UNL     1       4.525   1.344   0.574  1.00  0.00     0.097 N 
HETATM    2  H   UNL     1       4.888   1.134  -0.354  1.00  0.00     0.317 HD
ENDROOT
BRANCH   1   3
HETATM    3  C   UNL     1       3.030   1.323   0.543  1.00  0.00     0.177 C 
BRANCH   3   4
HETATM    4  C   UNL     1       2.616  -0.126   0.124  1.00  0.00     0.039 C 
HETATM    5  C   UNL     1       3.032  -0.581  -1.272  1.00  0.00     0.007 C 
ENDBRANCH   3   4
BRANCH   3   6
HETATM    6  C   UNL     1       2.509   2.382  -0.479  1.00  0.00     0.039 C 
HETATM    7  C   UNL     1       0.998   2.433  -0.678  1.00  0.00     0.007 C 
ENDBRANCH   3   6
BRANCH   3   8
HETATM    8  C   UNL     1       2.406   1.612   1.956  1.00  0.00     0.205 C 
BRANCH   8   9
HETATM    9  O   UNL     1       2.909   0.774   2.994  1.00  0.00    -0.398 OA
HETATM   10  H   UNL     1       2.739  -0.148   2.746  1.00  0.00     0.209 HD
ENDBRANCH   8   9
ENDBRANCH   3   8
ENDBRANCH   1   3
BRANCH   1  11
HETATM   11  C   UNL     1       5.117   2.604   1.052  1.00  0.00     0.292 C 
BRANCH  11  12
HETATM   12  C   UNL     1       6.648   2.573   1.107  1.00  0.00     0.178 C 
BRANCH  12  13
HETATM   13  N   UNL     1       7.153   3.880   1.504  1.00  0.00    -0.301 N 
HETATM   14  C   UNL     1       7.447   4.927   0.674  1.00  0.00     0.130 A 
HETATM   15  C   UNL     1       7.699   5.987   1.503  1.00  0.00     0.044 A 
HETATM   16 BR   UNL     1       8.103   7.747   1.042  1.00  0.00    -0.048 Br
HETATM   17  C   UNL     1       7.567   5.491   2.806  1.00  0.00     0.127 A 
HETATM   18  N   UNL     1       7.244   4.197   2.813  1.00  0.00    -0.309 N 
ATOM     19  HN  UNL     1       7.099   3.589   3.619  1.00  0.00     0.186 HD
ENDBRANCH  12  13
ENDBRANCH  11  12
ENDBRANCH   1  11
TORSDOF 8
