REMARK  6 active torsions:
REMARK  status: ('A' for Active; 'I' for Inactive)
REMARK    1  A    between atoms: N_2  and  C_9 
REMARK    2  A    between atoms: N_3  and  C_4 
REMARK    3  A    between atoms: C_18  and  C_24 
REMARK    4  A    between atoms: C_18  and  C_25 
REMARK    5  A    between atoms: C_24  and  O_28 
REMARK    6  A    between atoms: C_25  and  O_27 
ROOT
HETATM    1  C   UNL     1       0.349  -0.664  -0.085  1.00  0.00     0.117 A 
HETATM    2  N   UNL     1       1.604   1.125  -0.078  1.00  0.00    -0.322 N 
HETATM    3  C   UNL     1      -0.869  -1.383  -0.059  1.00  0.00     0.115 A 
HETATM    4  C   UNL     1       0.287   0.730  -0.124  1.00  0.00     0.140 A 
HETATM    5  N   UNL     1       1.657  -1.104  -0.045  1.00  0.00    -0.346 N 
ATOM      6  HN  UNL     1       1.990  -2.068  -0.021  1.00  0.00     0.167 HD
HETATM    7  C   UNL     1       2.376  -0.006  -0.044  1.00  0.00     0.185 A 
HETATM    8  N   UNL     1      -0.828   1.479  -0.163  1.00  0.00    -0.336 N 
ATOM      9  HN  UNL     1      -0.841   2.499  -0.182  1.00  0.00     0.168 HD
HETATM   10  N   UNL     1      -2.014  -0.655  -0.128  1.00  0.00    -0.341 N 
ATOM     11  HN  UNL     1      -2.922  -1.119  -0.146  1.00  0.00     0.167 HD
HETATM   12  C   UNL     1      -1.931   0.696  -0.173  1.00  0.00     0.183 A 
ENDROOT
BRANCH   3  13
HETATM   13  N   UNL     1      -0.884  -2.772   0.111  1.00  0.00    -0.252 NA
HETATM   14  C   UNL     1      -2.045  -3.409   0.765  1.00  0.00     0.088 C 
HETATM   15  C   UNL     1      -1.603  -4.865   1.119  1.00  0.00     0.102 C 
HETATM   16  C   UNL     1      -2.466  -2.706   2.069  1.00  0.00     0.022 C 
HETATM   17  N   UNL     1      -1.142  -5.602  -0.048  1.00  0.00    -0.354 N 
HETATM   18  C   UNL     1      -2.701  -5.638   1.850  1.00  0.00     0.027 C 
HETATM   19  C   UNL     1      -0.317  -4.989  -0.964  1.00  0.00     0.231 C 
HETATM   20  H   UNL     1      -0.927  -6.586   0.057  1.00  0.00     0.162 HD
HETATM   21  C   UNL     1      -0.440  -3.463  -1.128  1.00  0.00     0.200 C 
HETATM   22  O   UNL     1       0.403  -5.681  -1.683  1.00  0.00    -0.272 OA
HETATM   23  C   UNL     1      -3.132  -4.905   3.115  1.00  0.00     0.002 C 
HETATM   24  C   UNL     1      -3.560  -3.478   2.804  1.00  0.00     0.002 C 
ENDBRANCH   3  13
BRANCH   2  25
HETATM   25  C   UNL     1       2.221   2.419  -0.026  1.00  0.00     0.094 C 
HETATM   26  C   UNL     1       1.736   3.362   1.114  1.00  0.00     0.039 C 
HETATM   27  C   UNL     1       2.079   4.551   0.145  1.00  0.00     0.006 C 
HETATM   28  C   UNL     1       1.699   3.518  -0.986  1.00  0.00     0.039 C 
BRANCH  27  29
HETATM   29  C   UNL     1       1.152   5.760   0.285  1.00  0.00     0.175 C 
BRANCH  29  30
HETATM   30  O   UNL     1       1.256   6.594  -0.865  1.00  0.00    -0.400 OA
HETATM   31  H   UNL     1       2.205   6.812  -0.977  1.00  0.00     0.209 HD
ENDBRANCH  29  30
ENDBRANCH  27  29
BRANCH  27  32
HETATM   32  C   UNL     1       3.554   4.988   0.227  1.00  0.00     0.175 C 
BRANCH  32  33
HETATM   33  O   UNL     1       3.910   5.703  -0.952  1.00  0.00    -0.400 OA
HETATM   34  H   UNL     1       4.099   5.047  -1.648  1.00  0.00     0.209 HD
ENDBRANCH  32  33
ENDBRANCH  27  32
ENDBRANCH   2  25
TORSDOF 6
