REMARK  5 active torsions:
REMARK  status: ('A' for Active; 'I' for Inactive)
REMARK       I    between atoms: N_2  and  C_3 
REMARK       I    between atoms: C_3  and  N_5 
REMARK       I    between atoms: N_5  and  C_6 
REMARK    1  A    between atoms: C_6  and  C_8 
REMARK    2  A    between atoms: C_8  and  N_9 
REMARK    3  A    between atoms: C_12  and  C_13 
REMARK    4  A    between atoms: C_13  and  N_14 
REMARK    5  A    between atoms: N_18  and  C_19 
ROOT
HETATM    1  N   UNL     1       7.340   1.304  -3.684  1.00  0.00    -0.256 N 
HETATM    2  C   UNL     1       7.746   0.419  -4.669  1.00  0.00     0.273 A 
HETATM    3  O   UNL     1       7.704  -0.801  -4.522  1.00  0.00    -0.266 OA
HETATM    4  C   UNL     1       8.196   1.015  -5.943  1.00  0.00     0.110 A 
HETATM    5  C   UNL     1       8.067   2.334  -6.115  1.00  0.00     0.123 A 
HETATM    6  N   UNL     1       7.601   3.164  -5.117  1.00  0.00    -0.303 N 
HETATM    7  C   UNL     1       7.256   2.691  -3.844  1.00  0.00     0.332 A 
HETATM    8  O   UNL     1       6.885   3.432  -2.936  1.00  0.00    -0.246 OA
ENDROOT
BRANCH   1   9
HETATM    9  C   UNL     1       6.835   0.744  -2.436  1.00  0.00     0.240 C 
BRANCH   9  10
HETATM   10  C   UNL     1       5.315   0.645  -2.545  1.00  0.00     0.244 C 
HETATM   11  N   UNL     1       4.844  -0.537  -3.091  1.00  0.00    -0.278 N 
HETATM   12  C   UNL     1       3.540  -0.861  -3.385  1.00  0.00     0.322 C 
HETATM   13  H   UNL     1       5.499  -1.270  -3.339  1.00  0.00     0.173 HD
HETATM   14  N   UNL     1       2.612   0.101  -3.122  1.00  0.00    -0.347 N 
HETATM   15  O   UNL     1       3.269  -1.958  -3.865  1.00  0.00    -0.247 OA
HETATM   16  C   UNL     1       1.210  -0.057  -3.391  1.00  0.00     0.151 C 
HETATM   17  H   UNL     1       2.947   0.981  -2.728  1.00  0.00     0.163 HD
HETATM   18  O   UNL     1       4.583   1.595  -2.269  1.00  0.00    -0.271 OA
ENDBRANCH   9  10
ENDBRANCH   1   9
BRANCH   4  19
HETATM   19  C   UNL     1       8.730   0.113  -7.044  1.00  0.00    -0.030 C 
BRANCH  19  20
HETATM   20  N   UNL     1       9.173  -0.635  -7.957  1.00  0.00    -0.365 N 
ATOM     21  HN2 UNL     1       8.821  -0.029  -7.216  1.00  0.00     0.165 HD
ATOM     22  HN1 UNL     1       9.531  -1.240  -8.696  1.00  0.00     0.165 HD
ENDBRANCH  19  20
ENDBRANCH   4  19
BRANCH   6  23
HETATM   23  C   UNL     1       7.291   4.534  -5.475  1.00  0.00     0.094 A 
HETATM   24  C   UNL     1       8.313   5.480  -6.054  1.00  0.00     0.028 A 
HETATM   25  C   UNL     1       7.774   5.719  -4.677  1.00  0.00     0.028 A 
ENDBRANCH   6  23
TORSDOF 5
