REMARK  4 active torsions:
REMARK  status: ('A' for Active; 'I' for Inactive)
REMARK    1  A    between atoms: C_2  and  C_3 
REMARK    2  A    between atoms: C_2  and  C_13 
REMARK    3  A    between atoms: C_3  and  N_4 
REMARK       I    between atoms: N_4  and  C_5 
REMARK       I    between atoms: C_5  and  N_7 
REMARK    4  A    between atoms: N_7  and  C_8 
ROOT
HETATM    1  N   UNL     1       2.655  -0.909  -2.552  1.00  0.00    -0.342 N 
HETATM    2  C   UNL     1       3.072  -0.835  -3.855  1.00  0.00     0.316 C 
HETATM    3  O   UNL     1       3.792   0.055  -4.290  1.00  0.00    -0.247 OA
HETATM    4  N   UNL     1       2.649  -1.906  -4.594  1.00  0.00    -0.338 N 
HETATM    5  H   UNL     1       1.791  -1.408  -2.374  1.00  0.00     0.164 HD
HETATM    6  H   UNL     1       1.845  -2.415  -4.257  1.00  0.00     0.164 HD
ENDROOT
BRANCH   1   7
HETATM    7  C   UNL     1       2.973   0.170  -1.633  1.00  0.00     0.135 C 
BRANCH   7   8
HETATM    8  C   UNL     1       2.465  -0.043  -0.199  1.00  0.00     0.057 C 
HETATM    9  C   UNL     1       3.028  -1.317   0.437  1.00  0.00     0.018 C 
BRANCH   8  10
HETATM   10  C   UNL     1       0.958  -0.068  -0.156  1.00  0.00     0.056 A 
HETATM   11  N   UNL     1       0.210  -0.954  -0.785  1.00  0.00    -0.362 N 
HETATM   12  C   UNL     1      -1.120  -0.734  -0.482  1.00  0.00     0.102 A 
ATOM     13  HN  UNL     1       0.560  -1.688  -1.400  1.00  0.00     0.165 HD
HETATM   14  C   UNL     1      -1.376   0.326   0.362  1.00  0.00    -0.004 A 
HETATM   15  C   UNL     1      -2.669   0.817   0.900  1.00  0.00     0.058 C 
HETATM   16  S   UNL     1       0.097   1.092   0.779  1.00  0.00    -0.080 SA
ENDBRANCH   8  10
ENDBRANCH   7   8
ENDBRANCH   1   7
BRANCH   4  17
HETATM   17  C   UNL     1       2.970  -2.017  -6.016  1.00  0.00     0.093 C 
HETATM   18  C   UNL     1       1.901  -1.331  -6.888  1.00  0.00     0.052 C 
HETATM   19  C   UNL     1       1.050  -2.478  -7.346  1.00  0.00    -0.029 C 
HETATM   20  C   UNL     1       1.639  -3.655  -7.113  1.00  0.00    -0.029 C 
HETATM   21  C   UNL     1       2.976  -3.488  -6.467  1.00  0.00     0.052 C 
ENDBRANCH   4  17
TORSDOF 4
