REMARK  6 active torsions:
REMARK  status: ('A' for Active; 'I' for Inactive)
REMARK    1  A    between atoms: C_2  and  C_3 
REMARK       I    between atoms: C_2  and  N_10 
REMARK    2  A    between atoms: C_3  and  C_4 
REMARK    3  A    between atoms: C_4  and  C_5 
REMARK    4  A    between atoms: N_10  and  C_11 
REMARK    5  A    between atoms: C_11  and  C_12 
REMARK    6  A    between atoms: C_12  and  C_13 
ROOT
HETATM    1  O   UNL     1       0.962  -0.324  -0.050  1.00  0.00    -0.274 OA
HETATM    2  C   UNL     1       2.177  -0.176   0.024  1.00  0.00     0.217 C 
HETATM    3  N   UNL     1       2.969  -0.886   0.901  1.00  0.00    -0.361 N 
HETATM    4  H   UNL     1       3.974  -0.831   0.802  1.00  0.00     0.162 HD
ENDROOT
BRANCH   3   5
HETATM    5  C   UNL     1       2.412  -1.951   1.723  1.00  0.00     0.128 C 
BRANCH   5   6
HETATM    6  C   UNL     1       3.253  -2.192   2.974  1.00  0.00     0.076 C 
BRANCH   6   7
HETATM    7  C   UNL     1       2.714  -3.276   3.872  1.00  0.00     0.010 A 
HETATM    8  C   UNL     1       1.454  -3.169   4.457  1.00  0.00     0.025 A 
HETATM    9  C   UNL     1       1.025  -4.169   5.326  1.00  0.00     0.003 A 
HETATM   10  C   UNL     1       1.864  -5.242   5.596  1.00  0.00     0.017 A 
HETATM   11  C   UNL     1       3.101  -5.273   4.976  1.00  0.00     0.088 A 
HETATM   12  N   UNL     1       3.540  -4.322   4.122  1.00  0.00    -0.369 N 
ATOM     13  HN  UNL     1       4.458  -4.389   3.682  1.00  0.00     0.165 HD
ENDBRANCH   6   7
ENDBRANCH   5   6
ENDBRANCH   3   5
BRANCH   2  14
HETATM   14  C   UNL     1       2.926   0.833  -0.826  1.00  0.00     0.105 C 
BRANCH  14  15
HETATM   15  C   UNL     1       3.912   0.198  -1.808  1.00  0.00     0.041 C 
BRANCH  15  16
HETATM   16  C   UNL     1       3.232  -0.729  -2.814  1.00  0.00     0.121 C 
HETATM   17  C   UNL     1       4.190  -1.340  -3.829  1.00  0.00     0.034 C 
HETATM   18  C   UNL     1       3.402  -1.372  -5.124  1.00  0.00     0.029 C 
HETATM   19  C   UNL     1       2.050  -0.793  -4.766  1.00  0.00     0.168 C 
HETATM   20  O   UNL     1       2.277  -0.002  -3.596  1.00  0.00    -0.386 OA
ENDBRANCH  15  16
ENDBRANCH  14  15
ENDBRANCH   2  14
TORSDOF 6
