REMARK  2 active torsions:
REMARK  status: ('A' for Active; 'I' for Inactive)
REMARK    1  A    between atoms: C_8  and  N_9 
REMARK       I    between atoms: N_9  and  C_10 
REMARK       I    between atoms: C_10  and  N_12 
REMARK    2  A    between atoms: N_12  and  C_13 
ROOT
HETATM    1  N   UNL     1       2.228  -2.451  -0.068  1.00  0.00    -0.294 N 
HETATM    2  C   UNL     1       1.014  -2.525   0.566  1.00  0.00     0.322 C 
HETATM    3  O   UNL     1       0.609  -1.594   1.261  1.00  0.00    -0.247 OA
HETATM    4  N   UNL     1       0.279  -3.635   0.299  1.00  0.00    -0.337 N 
HETATM    5  H   UNL     1       2.674  -1.551   0.017  1.00  0.00     0.172 HD
HETATM    6  H   UNL     1       0.811  -4.383  -0.144  1.00  0.00     0.164 HD
ENDROOT
BRANCH   1   7
HETATM    7  C   UNL     1       2.844  -3.451  -0.844  1.00  0.00     0.114 A 
HETATM    8  C   UNL     1       3.906  -3.147  -1.696  1.00  0.00    -0.018 A 
HETATM    9  C   UNL     1       4.494  -1.776  -1.847  1.00  0.00     0.052 C 
HETATM   10  C   UNL     1       4.449  -4.200  -2.452  1.00  0.00     0.012 A 
HETATM   11  C   UNL     1       3.940  -5.489  -2.344  1.00  0.00     0.018 A 
HETATM   12  C   UNL     1       2.901  -5.697  -1.467  1.00  0.00     0.089 A 
HETATM   13  N   UNL     1       2.350  -4.712  -0.732  1.00  0.00    -0.352 N 
ATOM     14  HN  UNL     1       1.574  -4.910  -0.101  1.00  0.00     0.166 HD
ENDBRANCH   1   7
BRANCH   4  15
HETATM   15  C   UNL     1      -1.039  -3.970   0.797  1.00  0.00     0.104 C 
HETATM   16  C   UNL     1      -0.947  -4.848   2.046  1.00  0.00     0.036 C 
HETATM   17  C   UNL     1      -0.281  -6.193   1.753  1.00  0.00     0.105 C 
HETATM   18  C   UNL     1      -0.741  -6.865   0.474  1.00  0.00     0.217 C 
HETATM   19  O   UNL     1      -0.587  -8.068   0.275  1.00  0.00    -0.274 OA
HETATM   20  N   UNL     1      -1.232  -6.067  -0.519  1.00  0.00    -0.359 N 
HETATM   21  C   UNL     1      -1.804  -4.754  -0.277  1.00  0.00     0.147 C 
HETATM   22  H   UNL     1      -1.521  -6.577  -1.345  1.00  0.00     0.162 HD
ENDBRANCH   4  15
TORSDOF 2
