REMARK  5 active torsions:
REMARK  status: ('A' for Active; 'I' for Inactive)
REMARK    1  A    between atoms: C_2  and  N_3 
REMARK       I    between atoms: N_3  and  C_4 
REMARK    2  A    between atoms: C_4  and  C_6 
REMARK    3  A    between atoms: C_6  and  N_7 
REMARK       I    between atoms: N_7  and  C_8 
REMARK    4  A    between atoms: C_8  and  C_10 
REMARK    5  A    between atoms: C_13  and  N_17 
ROOT
HETATM    1  C   UNL     1       8.768   4.159  -0.463  1.00  0.00     0.047 A 
HETATM    2  C   UNL     1       9.470   4.969  -1.346  1.00  0.00     0.022 A 
HETATM    3  C   UNL     1      10.863   4.879  -1.402  1.00  0.00     0.049 A 
HETATM    4  C   UNL     1      11.553   3.991  -0.573  1.00  0.00     0.103 A 
HETATM    5  N   UNL     1      10.868   3.231   0.314  1.00  0.00    -0.351 N 
ATOM      6  HN  UNL     1      11.361   2.595   0.940  1.00  0.00     0.166 HD
HETATM    7  C   UNL     1       9.512   3.329   0.357  1.00  0.00     0.106 A 
ENDROOT
BRANCH   1   8
HETATM    8  C   UNL     1       7.288   4.231  -0.429  1.00  0.00     0.253 C 
HETATM    9  N   UNL     1       6.611   3.107  -0.009  1.00  0.00    -0.348 N 
HETATM   10  H   UNL     1       7.095   2.221   0.043  1.00  0.00     0.163 HD
HETATM   11  O   UNL     1       6.709   5.230  -0.844  1.00  0.00    -0.268 OA
BRANCH   9  12
HETATM   12  C   UNL     1       5.157   3.051  -0.036  1.00  0.00     0.225 C 
BRANCH  12  13
HETATM   13  C   UNL     1       4.634   2.572  -1.394  1.00  0.00     0.235 C 
HETATM   14  N   UNL     1       4.936   3.406  -2.449  1.00  0.00    -0.360 N 
HETATM   15  H   UNL     1       5.480   4.246  -2.255  1.00  0.00     0.162 HD
HETATM   16  O   UNL     1       3.968   1.546  -1.509  1.00  0.00    -0.272 OA
BRANCH  14  17
HETATM   17  C   UNL     1       4.506   3.131  -3.803  1.00  0.00     0.118 C 
HETATM   18  C   UNL     1       5.491   2.244  -4.542  1.00  0.00     0.026 C 
ENDBRANCH  14  17
ENDBRANCH  12  13
ENDBRANCH   9  12
ENDBRANCH   1   8
BRANCH   4  19
HETATM   19  N   UNL     1      12.928   3.920  -0.600  1.00  0.00    -0.362 N 
HETATM   20  C   UNL     1      13.705   4.055  -1.839  1.00  0.00     0.156 C 
HETATM   21  C   UNL     1      14.416   2.727  -2.188  1.00  0.00     0.136 C 
HETATM   22  C   UNL     1      15.365   2.917  -3.365  1.00  0.00     0.041 C 
HETATM   23  O   UNL     1      15.199   2.247  -1.080  1.00  0.00    -0.378 OA
HETATM   24  C   UNL     1      14.359   2.006   0.068  1.00  0.00     0.136 C 
HETATM   25  C   UNL     1      15.259   1.468   1.173  1.00  0.00     0.041 C 
HETATM   26  C   UNL     1      13.657   3.302   0.517  1.00  0.00     0.156 C 
ENDBRANCH   4  19
TORSDOF 5
