REMARK  7 active torsions:
REMARK  status: ('A' for Active; 'I' for Inactive)
REMARK    1  A    between atoms: C_2  and  O_3 
REMARK    2  A    between atoms: C_2  and  C_9 
REMARK    3  A    between atoms: O_3  and  C_4 
REMARK    4  A    between atoms: C_4  and  C_5 
REMARK       I    between atoms: C_9  and  N_11 
REMARK    5  A    between atoms: N_11  and  C_12 
REMARK    6  A    between atoms: C_12  and  C_13 
REMARK    7  A    between atoms: C_18  and  N_20 
ROOT
HETATM    1  C   UNL     1       6.538   2.321   1.937  1.00  0.00    -0.036 A 
HETATM    2  C   UNL     1       7.237   3.304   2.630  1.00  0.00     0.026 A 
HETATM    3  C   UNL     1       8.612   3.349   2.490  1.00  0.00     0.090 A 
HETATM    4  N   UNL     1       9.323   2.509   1.708  1.00  0.00    -0.352 N 
ATOM      5  HN  UNL     1      10.338   2.588   1.644  1.00  0.00     0.166 HD
HETATM    6  C   UNL     1       8.657   1.563   1.014  1.00  0.00     0.103 A 
HETATM    7  C   UNL     1       7.267   1.457   1.110  1.00  0.00     0.057 A 
ENDROOT
BRANCH   1   8
HETATM    8  C   UNL     1       5.049   2.198   2.046  1.00  0.00     0.161 C 
BRANCH   8   9
HETATM    9  N   UNL     1       4.399   2.944   0.997  1.00  0.00    -0.355 N 
HETATM   10  C   UNL     1       3.020   2.965   0.896  1.00  0.00     0.246 C 
HETATM   11  O   UNL     1       2.296   2.335   1.661  1.00  0.00    -0.271 OA
HETATM   12  H   UNL     1       4.967   3.513   0.385  1.00  0.00     0.162 HD
BRANCH  10  13
HETATM   13  C   UNL     1       2.488   3.878  -0.238  1.00  0.00     0.209 C 
HETATM   14  C   UNL     1       1.137   3.350  -0.714  1.00  0.00     0.050 C 
BRANCH  13  15
HETATM   15  O   UNL     1       2.304   5.247   0.125  1.00  0.00    -0.368 OA
BRANCH  15  16
HETATM   16  C   UNL     1       3.509   5.922   0.513  1.00  0.00     0.286 C 
BRANCH  16  17
HETATM   17  C   UNL     1       3.320   7.409   0.832  1.00  0.00     0.408 C 
HETATM   18  F   UNL     1       2.051   7.833   0.677  1.00  0.00    -0.169 F 
HETATM   19  F   UNL     1       3.688   7.666   2.111  1.00  0.00    -0.169 F 
HETATM   20  F   UNL     1       4.109   8.167   0.033  1.00  0.00    -0.169 F 
ENDBRANCH  16  17
ENDBRANCH  15  16
ENDBRANCH  13  15
ENDBRANCH  10  13
ENDBRANCH   8   9
ENDBRANCH   1   8
BRANCH   6  21
HETATM   21  N   UNL     1       9.362   0.628   0.262  1.00  0.00    -0.363 N 
HETATM   22  C   UNL     1      10.797   0.457   0.541  1.00  0.00     0.150 C 
HETATM   23  C   UNL     1      11.679   1.188  -0.480  1.00  0.00     0.187 C 
HETATM   24  O   UNL     1      11.327   0.834  -1.829  1.00  0.00    -0.388 OA
HETATM   25  C   UNL     1       9.965   1.203  -2.083  1.00  0.00     0.187 C 
HETATM   26  C   UNL     1       8.992   0.459  -1.154  1.00  0.00     0.150 C 
ENDBRANCH   6  21
TORSDOF 7
