REMARK  4 active torsions:
REMARK  status: ('A' for Active; 'I' for Inactive)
REMARK    1  A    between atoms: C_2  and  N_3 
REMARK    2  A    between atoms: C_2  and  C_15 
REMARK       I    between atoms: N_3  and  C_4 
REMARK       I    between atoms: C_4  and  N_6 
REMARK    3  A    between atoms: N_6  and  C_7 
REMARK       I    between atoms: C_15  and  N_17 
REMARK    4  A    between atoms: N_17  and  C_18 
ROOT
HETATM    1  N   UNL     1       3.099   1.345  -0.108  1.00  0.00    -0.330 N 
HETATM    2  C   UNL     1       4.303   1.697  -0.629  1.00  0.00     0.322 C 
HETATM    3  O   UNL     1       5.074   0.872  -1.114  1.00  0.00    -0.247 OA
HETATM    4  N   UNL     1       4.683   3.000  -0.526  1.00  0.00    -0.288 N 
HETATM    5  H   UNL     1       2.503   2.086   0.252  1.00  0.00     0.165 HD
HETATM    6  H   UNL     1       5.619   3.219  -0.834  1.00  0.00     0.172 HD
ENDROOT
BRANCH   1   7
HETATM    7  C   UNL     1       2.529   0.002  -0.184  1.00  0.00     0.174 C 
HETATM    8  C   UNL     1       1.003   0.103  -0.219  1.00  0.00     0.042 C 
BRANCH   7   9
HETATM    9  C   UNL     1       2.942  -0.948   0.972  1.00  0.00     0.240 C 
HETATM   10  O   UNL     1       2.237  -1.900   1.309  1.00  0.00    -0.271 OA
HETATM   11  N   UNL     1       4.202  -0.757   1.504  1.00  0.00    -0.355 N 
HETATM   12  H   UNL     1       4.838  -0.181   0.961  1.00  0.00     0.162 HD
BRANCH  11  13
HETATM   13  C   UNL     1       4.755  -1.708   2.452  1.00  0.00     0.084 C 
HETATM   14  C   UNL     1       5.746  -1.081   3.434  1.00  0.00     0.025 C 
HETATM   15  C   UNL     1       6.867  -2.103   3.626  1.00  0.00     0.002 C 
HETATM   16  C   UNL     1       6.442  -3.351   2.865  1.00  0.00     0.002 C 
HETATM   17  C   UNL     1       5.533  -2.828   1.766  1.00  0.00     0.025 C 
ENDBRANCH  11  13
ENDBRANCH   7   9
ENDBRANCH   1   7
BRANCH   4  18
HETATM   18  C   UNL     1       3.925   3.993   0.023  1.00  0.00     0.169 A 
HETATM   19  N   UNL     1       2.671   3.943   0.407  1.00  0.00    -0.279 N 
HETATM   20  N   UNL     1       2.270   5.122   0.994  1.00  0.00    -0.296 N 
ATOM     21  HN  UNL     1       2.067   3.130   0.285  1.00  0.00     0.189 HD
HETATM   22  C   UNL     1       3.245   6.007   1.047  1.00  0.00     0.066 A 
ATOM     23  HN  UNL     1       1.328   5.291   1.347  1.00  0.00     0.187 HD
HETATM   24  C   UNL     1       3.140   7.330   1.700  1.00  0.00     0.078 C 
HETATM   25  S   UNL     1       4.709   5.481   0.308  1.00  0.00    -0.038 SA
ENDBRANCH   4  18
TORSDOF 4
