REMARK  5 active torsions:
REMARK  status: ('A' for Active; 'I' for Inactive)
REMARK    1  A    between atoms: C_6  and  O_8 
REMARK    2  A    between atoms: O_8  and  C_9 
REMARK    3  A    between atoms: C_9  and  C_10 
REMARK       I    between atoms: C_10  and  N_12 
REMARK    4  A    between atoms: N_12  and  C_13 
REMARK    5  A    between atoms: C_18  and  N_21 
ROOT
HETATM    1  C   UNL     1       3.249  -4.802  -4.045  1.00  0.00     0.246 C 
HETATM    2  O   UNL     1       3.520  -5.015  -5.228  1.00  0.00    -0.271 OA
HETATM    3  N   UNL     1       3.323  -5.730  -3.034  1.00  0.00    -0.311 N 
HETATM    4  H   UNL     1       3.474  -5.376  -2.096  1.00  0.00     0.170 HD
ENDROOT
BRANCH   3   5
HETATM    5  C   UNL     1       3.766  -7.042  -3.254  1.00  0.00     0.124 A 
HETATM    6  C   UNL     1       3.455  -7.719  -4.410  1.00  0.00     0.067 A 
HETATM    7  C   UNL     1       4.032  -8.951  -4.540  1.00  0.00     0.110 A 
HETATM    8  N   UNL     1       4.849  -9.482  -3.608  1.00  0.00    -0.202 N 
HETATM    9  C   UNL     1       5.076  -8.770  -2.488  1.00  0.00     0.680 A 
ATOM     10  HN  UNL     1       5.282 -10.395  -3.747  1.00  0.00     0.183 HD
HETATM   11  N   UNL     1       4.509  -7.571  -2.272  1.00  0.00    -0.176 N 
ATOM     12  HN  UNL     1       4.640  -7.079  -1.388  1.00  0.00     0.186 HD
BRANCH   9  13
HETATM   13  N   UNL     1       5.890  -9.326  -1.510  1.00  0.00    -0.226 N 
HETATM   14  C   UNL     1       6.330  -8.436  -0.446  1.00  0.00     0.168 C 
HETATM   15  C   UNL     1       6.877 -10.291  -1.975  1.00  0.00     0.168 C 
ENDBRANCH   9  13
ENDBRANCH   3   5
BRANCH   1  16
HETATM   16  C   UNL     1       2.727  -3.436  -3.615  1.00  0.00     0.271 C 
BRANCH  16  17
HETATM   17  O   UNL     1       3.226  -2.948  -2.377  1.00  0.00    -0.377 OA
BRANCH  17  18
HETATM   18  C   UNL     1       2.652  -1.677  -2.018  1.00  0.00     0.122 C 
HETATM   19  C   UNL     1       3.007  -0.572  -3.026  1.00  0.00     0.032 C 
HETATM   20  C   UNL     1       2.544   0.807  -2.580  1.00  0.00     0.003 C 
HETATM   21  C   UNL     1       3.061   1.152  -1.188  1.00  0.00     0.004 C 
HETATM   22  C   UNL     1       2.714   0.081  -0.145  1.00  0.00    -0.016 C 
HETATM   23  C   UNL     1       1.225   0.098   0.207  1.00  0.00     0.010 C 
HETATM   24  C   UNL     1       3.170  -1.308  -0.620  1.00  0.00     0.036 C 
ENDBRANCH  17  18
ENDBRANCH  16  17
ENDBRANCH   1  16
TORSDOF 5
