REMARK  6 active torsions:
REMARK  status: ('A' for Active; 'I' for Inactive)
REMARK    1  A    between atoms: C_2  and  C_4 
REMARK    2  A    between atoms: C_4  and  C_5 
REMARK    3  A    between atoms: C_4  and  N_18 
REMARK    4  A    between atoms: C_5  and  N_6 
REMARK       I    between atoms: N_6  and  C_7 
REMARK    5  A    between atoms: C_7  and  C_9 
REMARK    6  A    between atoms: C_9  and  N_11 
ROOT
HETATM    1  N   UNL     1       2.675   1.892   3.421  1.00  0.00    -0.357 N 
HETATM    2  C   UNL     1       2.118   1.767   4.681  1.00  0.00     0.242 C 
HETATM    3  O   UNL     1       1.244   0.945   4.937  1.00  0.00    -0.271 OA
HETATM    4  H   UNL     1       3.414   2.563   3.275  1.00  0.00     0.162 HD
ENDROOT
BRANCH   1   5
HETATM    5  C   UNL     1       2.354   0.929   2.378  1.00  0.00     0.159 C 
BRANCH   5   6
HETATM    6  C   UNL     1       3.127   1.037   1.010  1.00  0.00     0.244 C 
BRANCH   6   7
HETATM    7  C   UNL     1       2.403   0.101  -0.050  1.00  0.00     0.012 C 
HETATM    8  C   UNL     1       2.394  -1.387   0.329  1.00  0.00     0.012 C 
HETATM    9  C   UNL     1       0.968   0.541  -0.380  1.00  0.00     0.012 C 
ENDBRANCH   6   7
BRANCH   6  10
HETATM   10  N   UNL     1       4.598   0.723   1.089  1.00  0.00     0.099 N 
HETATM   11  C   UNL     1       5.385   1.519   2.065  1.00  0.00     0.299 C 
HETATM   12  C   UNL     1       5.522   3.002   1.668  1.00  0.00     0.198 C 
HETATM   13  O   UNL     1       6.184   3.133   0.405  1.00  0.00    -0.388 OA
HETATM   14  C   UNL     1       5.518   2.376  -0.614  1.00  0.00     0.198 C 
HETATM   15  C   UNL     1       5.326   0.903  -0.201  1.00  0.00     0.299 C 
ENDBRANCH   6  10
ENDBRANCH   5   6
ENDBRANCH   1   5
BRANCH   2  16
HETATM   16  C   UNL     1       2.707   2.688   5.743  1.00  0.00     0.196 C 
HETATM   17  C   UNL     1       1.637   3.151   6.729  1.00  0.00     0.044 C 
BRANCH  16  18
HETATM   18  N   UNL     1       3.799   2.010   6.424  1.00  0.00    -0.273 N 
HETATM   19  C   UNL     1       3.766   0.861   7.153  1.00  0.00     0.202 A 
HETATM   20  N   UNL     1       4.959   0.626   7.652  1.00  0.00    -0.346 N 
HETATM   21  C   UNL     1       5.697   1.678   7.202  1.00  0.00     0.198 A 
ATOM     22  HN  UNL     1       5.259  -0.155   8.235  1.00  0.00     0.167 HD
HETATM   23  N   UNL     1       5.040   2.546   6.429  1.00  0.00    -0.292 N 
ATOM     24  HN  UNL     1       5.383   3.388   5.966  1.00  0.00     0.188 HD
ENDBRANCH  16  18
ENDBRANCH   2  16
TORSDOF 6
