REMARK  4 active torsions:
REMARK  status: ('A' for Active; 'I' for Inactive)
REMARK    1  A    between atoms: C_2  and  C_5 
REMARK    2  A    between atoms: C_10  and  N_11 
REMARK       I    between atoms: N_11  and  C_12 
REMARK       I    between atoms: C_12  and  N_14 
REMARK    3  A    between atoms: N_14  and  C_15 
REMARK    4  A    between atoms: N_18  and  C_21 
ROOT
HETATM    1  N   UNL     1       4.503  -0.270   4.431  1.00  0.00    -0.304 N 
HETATM    2  C   UNL     1       5.411  -1.256   4.138  1.00  0.00     0.321 C 
HETATM    3  O   UNL     1       6.221  -1.213   3.218  1.00  0.00    -0.247 OA
HETATM    4  N   UNL     1       5.340  -2.336   4.989  1.00  0.00    -0.338 N 
HETATM    5  H   UNL     1       4.120  -0.232   5.373  1.00  0.00     0.171 HD
HETATM    6  H   UNL     1       4.858  -2.207   5.867  1.00  0.00     0.164 HD
ENDROOT
BRANCH   1   7
HETATM    7  C   UNL     1       4.324   0.882   3.687  1.00  0.00     0.105 A 
HETATM    8  C   UNL     1       3.678   2.053   4.380  1.00  0.00     0.272 A 
HETATM    9  N   UNL     1       3.568   3.207   3.639  1.00  0.00    -0.331 N 
HETATM   10  O   UNL     1       3.297   1.968   5.546  1.00  0.00    -0.266 OA
HETATM   11  C   UNL     1       3.998   3.332   2.339  1.00  0.00     0.107 A 
HETATM   12  H   UNL     1       3.154   3.999   4.117  1.00  0.00     0.168 HD
HETATM   13  C   UNL     1       4.553   2.292   1.692  1.00  0.00     0.065 A 
HETATM   14  C   UNL     1       4.689   1.033   2.402  1.00  0.00     0.052 A 
BRANCH  13  15
HETATM   15  C   UNL     1       5.069   2.382   0.284  1.00  0.00     0.418 C 
HETATM   16  F   UNL     1       5.604   1.220  -0.172  1.00  0.00    -0.166 F 
HETATM   17  F   UNL     1       6.033   3.329   0.167  1.00  0.00    -0.166 F 
HETATM   18  F   UNL     1       4.081   2.720  -0.585  1.00  0.00    -0.166 F 
ENDBRANCH  13  15
ENDBRANCH   1   7
BRANCH   4  19
HETATM   19  C   UNL     1       6.395  -3.345   4.920  1.00  0.00     0.089 C 
HETATM   20  C   UNL     1       5.920  -4.723   5.376  1.00  0.00     0.055 C 
HETATM   21  C   UNL     1       5.862  -4.865   6.894  1.00  0.00     0.275 C 
HETATM   22  N   UNL     1       7.068  -4.405   7.592  1.00  0.00     0.093 N 
HETATM   23  C   UNL     1       7.417  -3.032   7.206  1.00  0.00     0.275 C 
HETATM   24  C   UNL     1       7.626  -2.875   5.700  1.00  0.00     0.055 C 
BRANCH  22  25
HETATM   25  C   UNL     1       8.216  -5.324   7.489  1.00  0.00     0.223 A 
HETATM   26  C   UNL     1       8.226  -6.634   8.222  1.00  0.00     0.038 A 
HETATM   27  C   UNL     1       9.076  -5.502   8.713  1.00  0.00     0.038 A 
ENDBRANCH  22  25
ENDBRANCH   4  19
TORSDOF 4
