REMARK  4 active torsions:
REMARK  status: ('A' for Active; 'I' for Inactive)
REMARK    1  A    between atoms: C_2  and  N_3 
REMARK    2  A    between atoms: N_4  and  C_18 
REMARK    3  A    between atoms: C_18  and  C_20 
REMARK    4  A    between atoms: C_20  and  O_26 
ROOT
HETATM    1  C   UNL     1       0.398  -0.595   0.084  1.00  0.00     0.122 A 
HETATM    2  C   UNL     1      -0.882  -1.172  -0.148  1.00  0.00     0.136 A 
HETATM    3  N   UNL     1       1.780   1.101   0.300  1.00  0.00    -0.324 N 
HETATM    4  C   UNL     1       0.487   0.784  -0.038  1.00  0.00     0.140 A 
HETATM    5  N   UNL     1       1.652  -1.115   0.374  1.00  0.00    -0.346 N 
ATOM      6  HN  UNL     1       1.899  -2.093   0.524  1.00  0.00     0.167 HD
HETATM    7  C   UNL     1       2.455  -0.070   0.414  1.00  0.00     0.185 C 
HETATM    8  N   UNL     1      -1.850  -0.336  -0.617  1.00  0.00    -0.337 N 
ATOM      9  HN  UNL     1      -2.761  -0.708  -0.887  1.00  0.00     0.168 HD
HETATM   10  N   UNL     1      -0.474   1.646  -0.408  1.00  0.00    -0.336 N 
ATOM     11  HN  UNL     1      -0.365   2.659  -0.445  1.00  0.00     0.168 HD
HETATM   12  C   UNL     1      -1.600   0.982  -0.722  1.00  0.00     0.183 A 
ENDROOT
BRANCH   2  13
HETATM   13  N   UNL     1      -1.218  -2.490   0.048  1.00  0.00    -0.355 N 
HETATM   14  C   UNL     1      -0.747  -3.262   1.180  1.00  0.00     0.092 C 
HETATM   15  C   UNL     1      -1.925  -3.709   2.057  1.00  0.00     0.104 C 
HETATM   16  C   UNL     1       0.090  -4.415   0.640  1.00  0.00     0.026 C 
HETATM   17  C   UNL     1      -3.234  -3.990   1.341  1.00  0.00     0.247 C 
HETATM   18  C   UNL     1      -3.472  -3.373  -0.016  1.00  0.00     0.104 C 
HETATM   19  F   UNL     1      -4.256  -3.599   2.164  1.00  0.00    -0.206 F 
HETATM   20  F   UNL     1      -3.384  -5.343   1.228  1.00  0.00    -0.206 F 
HETATM   21  C   UNL     1      -2.194  -3.137  -0.806  1.00  0.00     0.092 C 
HETATM   22  C   UNL     1      -1.556  -4.395  -1.412  1.00  0.00     0.026 C 
HETATM   23  C   UNL     1      -0.466  -5.111  -0.605  1.00  0.00     0.004 C 
ENDBRANCH   2  13
BRANCH   3  24
HETATM   24  C   UNL     1       2.313   2.447   0.362  1.00  0.00     0.169 C 
BRANCH  24  25
HETATM   25  C   UNL     1       2.096   3.183   1.717  1.00  0.00     0.078 C 
HETATM   26  C   UNL     1       2.378   4.687   1.542  1.00  0.00     0.066 C 
HETATM   27  C   UNL     1       3.868   4.985   1.500  1.00  0.00     0.170 C 
HETATM   28  O   UNL     1       4.491   4.523   2.692  1.00  0.00    -0.391 OA
HETATM   29  C   UNL     1       4.401   3.110   2.846  1.00  0.00     0.170 C 
HETATM   30  C   UNL     1       2.953   2.637   2.875  1.00  0.00     0.066 C 
BRANCH  25  31
HETATM   31  O   UNL     1       0.729   3.059   2.134  1.00  0.00    -0.388 OA
HETATM   32  H   UNL     1       0.144   3.030   1.356  1.00  0.00     0.210 HD
ENDBRANCH  25  31
ENDBRANCH  24  25
ENDBRANCH   3  24
TORSDOF 4
