REMARK  5 active torsions:
REMARK  status: ('A' for Active; 'I' for Inactive)
REMARK       I    between atoms: C_2  and  N_3 
REMARK       I    between atoms: C_2  and  N_11 
REMARK    1  A    between atoms: N_3  and  C_4 
REMARK    2  A    between atoms: C_4  and  C_5 
REMARK    3  A    between atoms: C_5  and  N_6 
REMARK    4  A    between atoms: N_11  and  C_12 
REMARK    5  A    between atoms: C_18  and  N_19 
ROOT
HETATM    1  O   UNL     1       0.979   0.800   0.433  1.00  0.00    -0.247 OA
HETATM    2  C   UNL     1       2.125   0.491   0.116  1.00  0.00     0.320 C 
HETATM    3  N   UNL     1       2.548   0.448  -1.182  1.00  0.00    -0.341 N 
HETATM    4  N   UNL     1       3.021   0.098   1.069  1.00  0.00    -0.306 N 
HETATM    5  H   UNL     1       3.178  -0.319  -1.356  1.00  0.00     0.164 HD
HETATM    6  H   UNL     1       2.594  -0.108   1.968  1.00  0.00     0.171 HD
ENDROOT
BRANCH   4   7
HETATM    7  C   UNL     1       4.427  -0.088   1.046  1.00  0.00     0.075 A 
HETATM    8  C   UNL     1       5.234   0.318  -0.020  1.00  0.00     0.034 A 
HETATM    9  C   UNL     1       6.595   0.036  -0.013  1.00  0.00     0.019 A 
HETATM   10  C   UNL     1       7.117  -0.616   1.083  1.00  0.00     0.089 A 
HETATM   11  N   UNL     1       6.388  -0.969   2.160  1.00  0.00    -0.355 N 
HETATM   12  C   UNL     1       5.061  -0.694   2.162  1.00  0.00     0.109 A 
ATOM     13  HN  UNL     1       6.825  -1.433   2.956  1.00  0.00     0.166 HD
BRANCH  12  14
HETATM   14  N   UNL     1       4.312  -0.986   3.327  1.00  0.00    -0.267 NA
HETATM   15  C   UNL     1       4.881  -2.075   4.148  1.00  0.00     0.097 C 
HETATM   16  C   UNL     1       4.429  -1.736   5.563  1.00  0.00     0.016 C 
HETATM   17  C   UNL     1       4.609  -0.230   5.589  1.00  0.00     0.016 C 
HETATM   18  C   UNL     1       4.165   0.209   4.191  1.00  0.00     0.097 C 
ENDBRANCH  12  14
ENDBRANCH   4   7
BRANCH   3  19
HETATM   19  C   UNL     1       1.686   0.809  -2.289  1.00  0.00     0.154 C 
BRANCH  19  20
HETATM   20  C   UNL     1       1.511   2.327  -2.522  1.00  0.00     0.292 C 
BRANCH  20  21
HETATM   21  N   UNL     1       2.719   3.116  -2.831  1.00  0.00     0.090 N 
HETATM   22  C   UNL     1       2.373   4.499  -3.203  1.00  0.00     0.272 C 
HETATM   23  C   UNL     1       3.337   4.904  -4.313  1.00  0.00     0.032 C 
HETATM   24  C   UNL     1       4.361   3.788  -4.351  1.00  0.00     0.032 C 
HETATM   25  C   UNL     1       3.565   2.578  -3.894  1.00  0.00     0.272 C 
ENDBRANCH  20  21
ENDBRANCH  19  20
ENDBRANCH   3  19
TORSDOF 5
