REMARK  5 active torsions:
REMARK  status: ('A' for Active; 'I' for Inactive)
REMARK    1  A    between atoms: C_2  and  C_3 
REMARK    2  A    between atoms: C_9  and  N_10 
REMARK    3  A    between atoms: C_15  and  C_16 
REMARK    4  A    between atoms: C_16  and  C_17 
REMARK    5  A    between atoms: C_17  and  O_18 
ROOT
HETATM    1  C   UNL     1       4.897   0.463  -2.938  1.00  0.00     0.052 A 
HETATM    2  N   UNL     1       4.468   0.041  -1.733  1.00  0.00    -0.353 N 
ATOM      3  HN  UNL     1       4.837  -0.799  -1.287  1.00  0.00     0.166 HD
HETATM    4  C   UNL     1       3.525   0.798  -1.160  1.00  0.00     0.182 A 
HETATM    5  N   UNL     1       3.021   1.952  -1.641  1.00  0.00    -0.336 N 
ATOM      6  HN  UNL     1       2.332   2.486  -1.111  1.00  0.00     0.168 HD
HETATM    7  C   UNL     1       3.455   2.378  -2.841  1.00  0.00     0.146 A 
HETATM    8  C   UNL     1       4.386   1.603  -3.539  1.00  0.00     0.182 A 
HETATM    9  F   UNL     1       4.802   1.926  -4.777  1.00  0.00    -0.200 F 
ENDROOT
BRANCH   7  10
HETATM   10  N   UNL     1       2.949   3.563  -3.376  1.00  0.00    -0.356 N 
HETATM   11  C   UNL     1       3.917   4.460  -4.056  1.00  0.00     0.151 C 
HETATM   12  C   UNL     1       4.244   5.695  -3.202  1.00  0.00     0.187 C 
HETATM   13  O   UNL     1       3.066   6.393  -2.793  1.00  0.00    -0.388 OA
HETATM   14  C   UNL     1       2.226   5.526  -2.014  1.00  0.00     0.193 C 
HETATM   15  C   UNL     1       1.763   4.309  -2.847  1.00  0.00     0.111 C 
BRANCH  15  16
HETATM   16  C   UNL     1       0.683   3.482  -2.133  1.00  0.00     0.053 C 
BRANCH  16  17
HETATM   17  C   UNL     1      -0.621   4.264  -1.958  1.00  0.00     0.166 C 
BRANCH  17  18
HETATM   18  O   UNL     1      -1.613   3.447  -1.350  1.00  0.00    -0.401 OA
HETATM   19  H   UNL     1      -1.998   2.886  -2.045  1.00  0.00     0.209 HD
ENDBRANCH  17  18
ENDBRANCH  16  17
ENDBRANCH  15  16
ENDBRANCH   7  10
BRANCH   1  20
HETATM   20  C   UNL     1       6.034  -0.282  -3.586  1.00  0.00     0.056 C 
HETATM   21  C   UNL     1       7.367   0.372  -3.244  1.00  0.00     0.011 C 
ENDBRANCH   1  20
TORSDOF 5
