REMARK  5 active torsions:
REMARK  status: ('A' for Active; 'I' for Inactive)
REMARK    1  A    between atoms: C_2  and  C_3 
REMARK    2  A    between atoms: C_6  and  N_7 
REMARK       I    between atoms: N_7  and  C_8 
REMARK       I    between atoms: C_8  and  N_10 
REMARK    3  A    between atoms: N_10  and  C_11 
REMARK    4  A    between atoms: C_11  and  C_12 
REMARK    5  A    between atoms: C_16  and  C_17 
ROOT
HETATM    1  N   UNL     1       4.174  -2.088   4.142  1.00  0.00    -0.289 N 
HETATM    2  C   UNL     1       4.187  -3.415   3.809  1.00  0.00     0.322 C 
HETATM    3  O   UNL     1       4.187  -3.894   2.683  1.00  0.00    -0.247 OA
HETATM    4  N   UNL     1       4.229  -4.224   4.937  1.00  0.00    -0.342 N 
HETATM    5  H   UNL     1       4.289  -1.790   5.093  1.00  0.00     0.172 HD
HETATM    6  H   UNL     1       4.566  -3.804   5.787  1.00  0.00     0.164 HD
ENDROOT
BRANCH   1   7
HETATM    7  C   UNL     1       4.120  -1.108   3.188  1.00  0.00     0.152 A 
HETATM    8  S   UNL     1       4.358   0.474   3.781  1.00  0.00    -0.064 SA
HETATM    9  C   UNL     1       4.191   1.075   2.180  1.00  0.00     0.078 A 
HETATM   10  C   UNL     1       3.921   0.033   1.311  1.00  0.00     0.017 A 
HETATM   11  N   UNL     1       3.902  -1.216   1.905  1.00  0.00    -0.340 N 
ATOM     12  HN  UNL     1       3.741  -2.094   1.412  1.00  0.00     0.168 HD
BRANCH  10  13
HETATM   13  C   UNL     1       3.648   0.126  -0.154  1.00  0.00     0.053 C 
HETATM   14  C   UNL     1       4.899  -0.075  -0.993  1.00  0.00     0.011 C 
ENDBRANCH  10  13
ENDBRANCH   1   7
BRANCH   4  15
HETATM   15  C   UNL     1       4.490  -5.638   4.731  1.00  0.00     0.131 C 
BRANCH  15  16
HETATM   16  C   UNL     1       4.491  -6.445   6.013  1.00  0.00     0.035 C 
HETATM   17  C   UNL     1       5.646  -6.106   6.939  1.00  0.00     0.035 C 
HETATM   18  C   UNL     1       5.802  -7.349   7.790  1.00  0.00     0.168 C 
HETATM   19  O   UNL     1       4.957  -8.363   7.231  1.00  0.00    -0.385 OA
HETATM   20  C   UNL     1       4.590  -7.971   5.885  1.00  0.00     0.130 C 
BRANCH  20  21
HETATM   21  C   UNL     1       5.607  -8.618   4.905  1.00  0.00     0.007 C 
HETATM   22  C   UNL     1       5.662 -10.141   5.140  1.00  0.00     0.012 C 
HETATM   23  C   UNL     1       5.293  -8.404   3.421  1.00  0.00     0.012 C 
ENDBRANCH  20  21
ENDBRANCH  15  16
ENDBRANCH   4  15
TORSDOF 5
