REMARK  5 active torsions:
REMARK  status: ('A' for Active; 'I' for Inactive)
REMARK    1  A    between atoms: C_2  and  N_4 
REMARK    2  A    between atoms: C_9  and  C_10 
REMARK       I    between atoms: C_10  and  N_12 
REMARK    3  A    between atoms: N_12  and  C_13 
REMARK    4  A    between atoms: C_13  and  C_14 
REMARK    5  A    between atoms: C_14  and  C_15 
ROOT
HETATM    1  C   UNL     1       1.450  -1.067  -2.839  1.00  0.00     0.251 C 
HETATM    2  O   UNL     1       0.301  -1.379  -3.144  1.00  0.00    -0.271 OA
HETATM    3  N   UNL     1       2.507  -1.948  -2.939  1.00  0.00    -0.359 N 
HETATM    4  H   UNL     1       3.371  -1.658  -2.488  1.00  0.00     0.162 HD
ENDROOT
BRANCH   1   5
HETATM    5  C   UNL     1       1.847   0.354  -2.400  1.00  0.00     0.314 C 
HETATM    6  N   UNL     1       2.820   0.416  -1.253  1.00  0.00     0.106 N 
HETATM    7  C   UNL     1       3.237   1.845  -1.159  1.00  0.00     0.274 C 
HETATM    8  C   UNL     1       2.076   2.812  -0.884  1.00  0.00     0.030 C 
HETATM    9  C   UNL     1       1.009   2.708  -1.967  1.00  0.00     0.004 C 
HETATM   10  C   UNL     1       0.617   1.258  -2.234  1.00  0.00     0.046 C 
BRANCH   6  11
HETATM   11  C   UNL     1       2.348  -0.096   0.071  1.00  0.00     0.216 C 
HETATM   12  C   UNL     1       1.927  -1.573   0.101  1.00  0.00     0.042 C 
HETATM   13  C   UNL     1       3.459   0.033   1.140  1.00  0.00     0.042 C 
ENDBRANCH   6  11
ENDBRANCH   1   5
BRANCH   3  14
HETATM   14  C   UNL     1       2.276  -3.349  -3.238  1.00  0.00     0.127 C 
BRANCH  14  15
HETATM   15  C   UNL     1       2.204  -3.613  -4.744  1.00  0.00     0.061 C 
BRANCH  15  16
HETATM   16  C   UNL     1       1.878  -5.033  -5.053  1.00  0.00    -0.023 A 
HETATM   17  C   UNL     1       2.770  -6.117  -5.216  1.00  0.00     0.115 A 
HETATM   18  N   UNL     1       2.142  -7.267  -5.471  1.00  0.00    -0.310 N 
HETATM   19  N   UNL     1       0.843  -6.922  -5.485  1.00  0.00    -0.308 N 
ATOM     20  HN  UNL     1       2.551  -8.189  -5.620  1.00  0.00     0.186 HD
HETATM   21  C   UNL     1      -0.172  -7.919  -5.723  1.00  0.00     0.177 C 
HETATM   22  C   UNL     1       0.633  -5.596  -5.244  1.00  0.00     0.118 A 
ENDBRANCH  15  16
ENDBRANCH  14  15
ENDBRANCH   3  14
TORSDOF 5
