REMARK  6 active torsions:
REMARK  status: ('A' for Active; 'I' for Inactive)
REMARK    1  A    between atoms: O_1  and  C_2 
REMARK    2  A    between atoms: C_2  and  C_3 
REMARK    3  A    between atoms: C_2  and  C_14 
REMARK    4  A    between atoms: C_3  and  N_4 
REMARK       I    between atoms: N_4  and  C_5 
REMARK    5  A    between atoms: C_5  and  C_7 
REMARK    6  A    between atoms: C_7  and  C_8 
ROOT
HETATM    1  N   UNL     1       2.440   0.581   2.770  1.00  0.00    -0.358 N 
HETATM    2  C   UNL     1       2.927   1.279   3.848  1.00  0.00     0.223 C 
HETATM    3  O   UNL     1       3.440   2.391   3.731  1.00  0.00    -0.273 OA
HETATM    4  H   UNL     1       1.851  -0.234   2.903  1.00  0.00     0.162 HD
ENDROOT
BRANCH   1   5
HETATM    5  C   UNL     1       2.565   1.087   1.417  1.00  0.00     0.154 C 
BRANCH   5   6
HETATM    6  C   UNL     1       2.121   0.067   0.357  1.00  0.00     0.140 C 
BRANCH   6   7
HETATM    7  O   UNL     1       0.819  -0.406   0.708  1.00  0.00    -0.394 OA
HETATM    8  H   UNL     1       0.196   0.325   0.545  1.00  0.00     0.210 HD
ENDBRANCH   6   7
BRANCH   6   9
HETATM    9  C   UNL     1       3.115  -1.100   0.097  1.00  0.00     0.016 C 
HETATM   10  C   UNL     1       2.664  -1.970  -1.097  1.00  0.00     0.007 C 
HETATM   11  C   UNL     1       1.540  -2.950  -0.763  1.00  0.00     0.000 C 
HETATM   12  C   UNL     1       1.892  -3.825   0.435  1.00  0.00     0.000 C 
HETATM   13  C   UNL     1       2.337  -3.006   1.643  1.00  0.00     0.000 C 
HETATM   14  C   UNL     1       3.447  -2.021   1.285  1.00  0.00     0.007 C 
ENDBRANCH   6   9
ENDBRANCH   5   6
ENDBRANCH   1   5
BRANCH   2  15
HETATM   15  C   UNL     1       2.765   0.579   5.186  1.00  0.00     0.161 C 
BRANCH  15  16
HETATM   16  C   UNL     1       4.057   0.501   5.920  1.00  0.00     0.043 A 
HETATM   17  C   UNL     1       4.909   1.555   6.331  1.00  0.00     0.054 A 
HETATM   18  C   UNL     1       5.937   0.927   6.982  1.00  0.00     0.169 A 
HETATM   19  O   UNL     1       5.725  -0.411   6.975  1.00  0.00    -0.250 OA
HETATM   20  N   UNL     1       4.541  -0.687   6.313  1.00  0.00    -0.265 N 
ATOM     21  HN  UNL     1       4.123  -1.604   6.156  1.00  0.00     0.194 HD
ENDBRANCH  15  16
ENDBRANCH   2  15
TORSDOF 6
