REMARK  5 active torsions:
REMARK  status: ('A' for Active; 'I' for Inactive)
REMARK       I    between atoms: C_2  and  N_4 
REMARK    1  A    between atoms: N_4  and  C_5 
REMARK    2  A    between atoms: C_5  and  C_6 
REMARK       I    between atoms: C_6  and  N_8 
REMARK    3  A    between atoms: N_8  and  C_9 
REMARK    4  A    between atoms: C_9  and  C_10 
REMARK    5  A    between atoms: C_16  and  N_17 
ROOT
HETATM    1  C   UNL     1       8.481   4.225   0.750  1.00  0.00    -0.002 A 
HETATM    2  C   UNL     1       9.215   5.419   0.891  1.00  0.00     0.013 A 
HETATM    3  C   UNL     1      10.601   5.394   0.947  1.00  0.00     0.018 A 
HETATM    4  C   UNL     1      11.216   4.164   0.900  1.00  0.00     0.089 A 
HETATM    5  N   UNL     1      10.549   3.003   0.745  1.00  0.00    -0.356 N 
ATOM      6  HN  UNL     1      11.058   2.120   0.711  1.00  0.00     0.166 HD
HETATM    7  C   UNL     1       9.195   3.017   0.635  1.00  0.00     0.090 A 
ENDROOT
BRANCH   1   8
HETATM    8  C   UNL     1       6.978   4.333   0.681  1.00  0.00     0.164 C 
BRANCH   8   9
HETATM    9  N   UNL     1       6.380   4.339   2.007  1.00  0.00    -0.355 N 
HETATM   10  C   UNL     1       5.032   4.106   2.190  1.00  0.00     0.235 C 
HETATM   11  O   UNL     1       4.244   3.936   1.264  1.00  0.00    -0.272 OA
HETATM   12  H   UNL     1       6.864   4.841   2.747  1.00  0.00     0.162 HD
BRANCH  10  13
HETATM   13  C   UNL     1       4.590   4.078   3.655  1.00  0.00     0.225 C 
BRANCH  13  14
HETATM   14  N   UNL     1       3.828   5.253   4.037  1.00  0.00    -0.353 N 
HETATM   15  C   UNL     1       4.457   6.396   4.464  1.00  0.00     0.213 C 
HETATM   16  C   UNL     1       3.514   7.486   4.893  1.00  0.00     0.117 C 
HETATM   17  O   UNL     1       5.677   6.512   4.499  1.00  0.00    -0.274 OA
HETATM   18  H   UNL     1       2.823   5.246   3.909  1.00  0.00     0.162 HD
ENDBRANCH  13  14
ENDBRANCH  10  13
ENDBRANCH   8   9
ENDBRANCH   1   8
BRANCH   7  19
HETATM   19  N   UNL     1       8.579   1.831   0.227  1.00  0.00    -0.265 NA
HETATM   20  C   UNL     1       9.520   0.834  -0.339  1.00  0.00     0.123 C 
HETATM   21  C   UNL     1       8.715  -0.275  -1.037  1.00  0.00     0.182 C 
HETATM   22  O   UNL     1       7.761  -0.889  -0.151  1.00  0.00    -0.389 OA
HETATM   23  C   UNL     1       6.876   0.105   0.399  1.00  0.00     0.182 C 
HETATM   24  C   UNL     1       7.663   1.176   1.178  1.00  0.00     0.123 C 
ENDBRANCH   7  19
TORSDOF 5
