REMARK  5 active torsions:
REMARK  status: ('A' for Active; 'I' for Inactive)
REMARK    1  A    between atoms: O_2  and  C_3 
REMARK    2  A    between atoms: C_3  and  C_4 
REMARK    3  A    between atoms: C_4  and  N_5 
REMARK       I    between atoms: N_5  and  C_6 
REMARK       I    between atoms: C_6  and  N_8 
REMARK    4  A    between atoms: N_8  and  C_9 
REMARK    5  A    between atoms: C_12  and  C_17 
ROOT
HETATM    1  N   UNL     1       2.719   0.654  -3.532  1.00  0.00    -0.340 N 
HETATM    2  C   UNL     1       2.593  -0.067  -4.694  1.00  0.00     0.321 C 
HETATM    3  O   UNL     1       2.485  -1.292  -4.671  1.00  0.00    -0.247 OA
HETATM    4  N   UNL     1       2.584   0.697  -5.831  1.00  0.00    -0.294 N 
HETATM    5  H   UNL     1       2.690   1.665  -3.541  1.00  0.00     0.164 HD
HETATM    6  H   UNL     1       2.167   1.612  -5.759  1.00  0.00     0.172 HD
ENDROOT
BRANCH   4   7
HETATM    7  C   UNL     1       2.432   0.111  -7.102  1.00  0.00     0.123 A 
HETATM    8  C   UNL     1       3.041  -1.083  -7.442  1.00  0.00     0.052 A 
HETATM    9  C   UNL     1       2.764  -1.663  -8.677  1.00  0.00     0.031 A 
HETATM   10  C   UNL     1       1.872  -1.041  -9.542  1.00  0.00     0.033 A 
HETATM   11  N   UNL     1       1.352   0.163  -9.207  1.00  0.00    -0.303 N 
HETATM   12  N   UNL     1       1.650   0.753  -7.991  1.00  0.00    -0.285 N 
ATOM     13  HN  UNL     1       0.732   0.642  -9.860  1.00  0.00     0.186 HD
ATOM     14  HN  UNL     1       1.277   1.676  -7.768  1.00  0.00     0.188 HD
BRANCH  10  15
HETATM   15  C   UNL     1       1.474  -1.681 -10.872  1.00  0.00    -0.007 C 
HETATM   16  C   UNL     1       0.942  -3.114 -10.654  1.00  0.00     0.021 C 
HETATM   17  C   UNL     1       0.359  -0.879 -11.577  1.00  0.00     0.021 C 
HETATM   18  C   UNL     1       2.693  -1.726 -11.810  1.00  0.00     0.021 C 
ENDBRANCH  10  15
ENDBRANCH   4   7
BRANCH   1  19
HETATM   19  C   UNL     1       2.514  -0.047  -2.276  1.00  0.00     0.162 C 
BRANCH  19  20
HETATM   20  C   UNL     1       2.696   0.906  -1.092  1.00  0.00     0.076 C 
HETATM   21  C   UNL     1       2.592   0.169   0.281  1.00  0.00     0.040 C 
HETATM   22  C   UNL     1       4.125   0.062   0.308  1.00  0.00     0.006 C 
HETATM   23  C   UNL     1       4.177   1.214  -0.709  1.00  0.00     0.040 C 
BRANCH  20  24
HETATM   24  O   UNL     1       1.877   2.102  -1.238  1.00  0.00    -0.383 OA
HETATM   25  C   UNL     1       0.467   1.945  -1.128  1.00  0.00     0.202 C 
ENDBRANCH  20  24
ENDBRANCH  19  20
ENDBRANCH   1  19
TORSDOF 5
