REMARK  2 active torsions:
REMARK  status: ('A' for Active; 'I' for Inactive)
REMARK    1  A    between atoms: C_8  and  N_9 
REMARK    2  A    between atoms: N_9  and  C_10 
ROOT
HETATM    1  C   UNL     1       4.542  -2.054  -2.302  1.00  0.00     0.068 C 
HETATM    2  C   UNL     1       4.003  -0.898  -1.517  1.00  0.00     0.009 A 
HETATM    3  C   UNL     1       2.678  -0.872  -1.125  1.00  0.00     0.049 A 
HETATM    4  C   UNL     1       2.268   0.246  -0.434  1.00  0.00     0.009 A 
HETATM    5  C   UNL     1       0.845   0.408   0.006  1.00  0.00     0.068 C 
HETATM    6  N   UNL     1       3.101   1.272  -0.174  1.00  0.00    -0.337 N 
ATOM      7  HN  UNL     1       2.781   2.092   0.342  1.00  0.00     0.168 HD
HETATM    8  C   UNL     1       4.363   1.181  -0.615  1.00  0.00     0.158 A 
HETATM    9  N   UNL     1       4.856   0.120  -1.259  1.00  0.00    -0.337 N 
ATOM     10  HN  UNL     1       5.834   0.079  -1.544  1.00  0.00     0.168 HD
ENDROOT
BRANCH   8  11
HETATM   11  N   UNL     1       5.101   2.336  -0.453  1.00  0.00    -0.257 NA
HETATM   12  H   UNL     1       4.575   2.876   0.229  1.00  0.00     0.131 HD
BRANCH  11  13
HETATM   13  C   UNL     1       6.524   2.241  -0.180  1.00  0.00     0.094 C 
HETATM   14  C   UNL     1       7.081   3.668   0.021  1.00  0.00     0.054 C 
HETATM   15  C   UNL     1       8.126   3.768  -1.084  1.00  0.00     0.123 C 
HETATM   16  C   UNL     1       7.468   3.815  -2.464  1.00  0.00     0.034 C 
HETATM   17  O   UNL     1       8.673   2.431  -1.055  1.00  0.00    -0.379 OA
HETATM   18  C   UNL     1       7.084   2.353  -2.685  1.00  0.00     0.036 C 
HETATM   19  C   UNL     1       7.420   1.732  -1.331  1.00  0.00     0.140 C 
ENDBRANCH  11  13
ENDBRANCH   8  11
TORSDOF 2
