REMARK  4 active torsions:
REMARK  status: ('A' for Active; 'I' for Inactive)
REMARK    1  A    between atoms: C_2  and  C_5 
REMARK    2  A    between atoms: N_8  and  C_9 
REMARK    3  A    between atoms: C_9  and  C_10 
REMARK       I    between atoms: C_10  and  N_12 
REMARK    4  A    between atoms: N_12  and  C_13 
ROOT
HETATM    1  C   UNL     1       2.586  -0.205   2.626  1.00  0.00     0.133 A 
HETATM    2  C   UNL     1       3.532  -0.473   1.600  1.00  0.00     0.054 A 
HETATM    3  C   UNL     1       3.823  -1.812   1.708  1.00  0.00     0.113 A 
HETATM    4  N   UNL     1       3.069  -2.279   2.744  1.00  0.00    -0.294 N 
HETATM    5  N   UNL     1       2.285  -1.335   3.300  1.00  0.00    -0.294 N 
ATOM      6  HN  UNL     1       1.614  -1.449   4.060  1.00  0.00     0.187 HD
ENDROOT
BRANCH   4   7
HETATM    7  C   UNL     1       3.085  -3.614   3.309  1.00  0.00     0.250 C 
BRANCH   7   8
HETATM    8  C   UNL     1       2.671  -4.667   2.314  1.00  0.00     0.237 C 
HETATM    9  O   UNL     1       3.417  -5.600   2.023  1.00  0.00    -0.272 OA
HETATM   10  N   UNL     1       1.384  -4.544   1.820  1.00  0.00    -0.355 N 
HETATM   11  H   UNL     1       0.817  -3.746   2.090  1.00  0.00     0.162 HD
BRANCH  10  12
HETATM   12  C   UNL     1       0.818  -5.530   0.954  1.00  0.00     0.084 A 
HETATM   13  C   UNL     1       0.980  -5.427  -0.537  1.00  0.00     0.027 A 
HETATM   14  C   UNL     1      -0.369  -5.217   0.086  1.00  0.00     0.027 A 
ENDBRANCH  10  12
ENDBRANCH   7   8
ENDBRANCH   4   7
BRANCH   1  15
HETATM   15  C   UNL     1       1.975   1.133   2.959  1.00  0.00     0.433 C 
HETATM   16  F   UNL     1       2.402   2.109   2.111  1.00  0.00    -0.165 F 
HETATM   17  F   UNL     1       2.294   1.550   4.214  1.00  0.00    -0.165 F 
HETATM   18  F   UNL     1       0.618   1.120   2.876  1.00  0.00    -0.165 F 
ENDBRANCH   1  15
TORSDOF 4
