REMARK  6 active torsions:
REMARK  status: ('A' for Active; 'I' for Inactive)
REMARK    1  A    between atoms: C_2  and  C_3 
REMARK    2  A    between atoms: C_2  and  N_16 
REMARK       I    between atoms: C_3  and  N_5 
REMARK    3  A    between atoms: N_5  and  C_6 
REMARK    4  A    between atoms: C_6  and  C_7 
REMARK    5  A    between atoms: C_7  and  O_8 
REMARK    6  A    between atoms: O_8  and  C_9 
ROOT
HETATM    1  C   UNL     1       3.163  -2.236  -3.180  1.00  0.00     0.242 C 
HETATM    2  O   UNL     1       3.133  -1.198  -2.519  1.00  0.00    -0.271 OA
HETATM    3  N   UNL     1       3.510  -3.447  -2.618  1.00  0.00    -0.357 N 
HETATM    4  H   UNL     1       3.571  -4.289  -3.185  1.00  0.00     0.162 HD
ENDROOT
BRANCH   3   5
HETATM    5  C   UNL     1       3.817  -3.600  -1.200  1.00  0.00     0.148 C 
BRANCH   5   6
HETATM    6  C   UNL     1       2.943  -4.674  -0.549  1.00  0.00     0.187 C 
BRANCH   6   7
HETATM    7  O   UNL     1       3.217  -5.966  -1.088  1.00  0.00    -0.384 OA
BRANCH   7   8
HETATM    8  C   UNL     1       2.590  -7.058  -0.388  1.00  0.00     0.125 C 
HETATM    9  C   UNL     1       3.110  -8.352  -1.048  1.00  0.00     0.032 C 
HETATM   10  C   UNL     1       2.645  -8.486  -2.504  1.00  0.00     0.002 C 
HETATM   11  C   UNL     1       1.136  -8.289  -2.675  1.00  0.00     0.001 C 
HETATM   12  C   UNL     1       0.611  -7.052  -1.940  1.00  0.00     0.007 C 
HETATM   13  C   UNL     1       1.043  -7.103  -0.472  1.00  0.00     0.010 C 
HETATM   14  C   UNL     1       0.289  -6.095   0.399  1.00  0.00     0.012 C 
ENDBRANCH   7   8
ENDBRANCH   6   7
ENDBRANCH   5   6
ENDBRANCH   3   5
BRANCH   1  15
HETATM   15  C   UNL     1       2.899  -2.235  -4.684  1.00  0.00     0.196 C 
HETATM   16  C   UNL     1       2.203  -0.948  -5.133  1.00  0.00     0.044 C 
BRANCH  15  17
HETATM   17  N   UNL     1       2.151  -3.413  -5.097  1.00  0.00    -0.273 N 
HETATM   18  C   UNL     1       0.882  -3.777  -4.770  1.00  0.00     0.202 A 
HETATM   19  N   UNL     1       0.604  -4.938  -5.321  1.00  0.00    -0.346 N 
HETATM   20  C   UNL     1       1.759  -5.250  -5.978  1.00  0.00     0.198 A 
ATOM     21  HN  UNL     1      -0.262  -5.474  -5.270  1.00  0.00     0.167 HD
HETATM   22  N   UNL     1       2.743  -4.356  -5.860  1.00  0.00    -0.292 N 
ATOM     23  HN  UNL     1       3.688  -4.379  -6.243  1.00  0.00     0.188 HD
ENDBRANCH  15  17
ENDBRANCH   1  15
TORSDOF 6
