REMARK  8 active torsions:
REMARK  status: ('A' for Active; 'I' for Inactive)
REMARK    1  A    between atoms: O_2  and  C_3 
REMARK    2  A    between atoms: C_3  and  C_4 
REMARK    3  A    between atoms: C_4  and  O_5 
REMARK    4  A    between atoms: O_5  and  C_6 
REMARK    5  A    between atoms: C_12  and  N_13 
REMARK    6  A    between atoms: N_13  and  S_14 
REMARK    7  A    between atoms: S_14  and  C_17 
REMARK    8  A    between atoms: C_22  and  O_23 
ROOT
HETATM    1  N   UNL     1       6.428  -0.165  -2.617  1.00  0.00    -0.181 NA
HETATM    2  H   UNL     1       6.915  -0.855  -2.033  1.00  0.00     0.146 HD
ENDROOT
BRANCH   1   3
HETATM    3  C   UNL     1       6.808   1.179  -2.235  1.00  0.00     0.073 A 
HETATM    4  C   UNL     1       7.047   1.577  -0.909  1.00  0.00     0.164 A 
HETATM    5  N   UNL     1       7.269   2.866  -0.551  1.00  0.00    -0.345 N 
HETATM    6  C   UNL     1       7.224   3.795  -1.524  1.00  0.00     0.090 A 
ATOM      7  HN  UNL     1       7.462   3.121   0.417  1.00  0.00     0.167 HD
HETATM    8  C   UNL     1       7.013   3.502  -2.858  1.00  0.00     0.019 A 
HETATM    9  C   UNL     1       6.804   2.171  -3.214  1.00  0.00     0.030 A 
BRANCH   4  10
HETATM   10  O   UNL     1       7.160   0.600   0.069  1.00  0.00    -0.332 OA
BRANCH  10  11
HETATM   11  C   UNL     1       7.060   1.141   1.398  1.00  0.00     0.203 C 
BRANCH  11  12
HETATM   12  C   UNL     1       7.485   0.093   2.426  1.00  0.00     0.193 C 
BRANCH  12  13
HETATM   13  O   UNL     1       7.225   0.581   3.746  1.00  0.00    -0.394 OA
HETATM   14  C   UNL     1       7.529  -0.393   4.737  1.00  0.00     0.201 C 
ENDBRANCH  12  13
ENDBRANCH  11  12
ENDBRANCH  10  11
ENDBRANCH   4  10
ENDBRANCH   1   3
BRANCH   1  15
HETATM   15  S   UNL     1       4.760  -0.504  -2.448  1.00  0.00     0.220 S 
HETATM   16  O   UNL     1       4.722  -1.634  -1.537  1.00  0.00    -0.211 OA
HETATM   17  O   UNL     1       4.049   0.711  -2.127  1.00  0.00    -0.211 OA
BRANCH  15  18
HETATM   18  C   UNL     1       4.259  -1.094  -4.090  1.00  0.00     0.153 C 
HETATM   19  C   UNL     1       4.499  -0.077  -5.217  1.00  0.00     0.024 C 
HETATM   20  C   UNL     1       3.513   1.094  -5.219  1.00  0.00     0.002 C 
HETATM   21  C   UNL     1       2.058   0.629  -5.216  1.00  0.00     0.002 C 
HETATM   22  C   UNL     1       1.775  -0.381  -4.109  1.00  0.00     0.033 C 
HETATM   23  C   UNL     1       2.780  -1.533  -4.133  1.00  0.00     0.138 C 
BRANCH  23  24
HETATM   24  O   UNL     1       2.445  -2.519  -3.169  1.00  0.00    -0.394 OA
HETATM   25  H   UNL     1       2.334  -2.096  -2.296  1.00  0.00     0.210 HD
ENDBRANCH  23  24
ENDBRANCH  15  18
ENDBRANCH   1  15
TORSDOF 8
