REMARK  4 active torsions:
REMARK  status: ('A' for Active; 'I' for Inactive)
REMARK    1  A    between atoms: C_2  and  N_3 
REMARK    2  A    between atoms: C_2  and  C_16 
REMARK       I    between atoms: N_3  and  C_4 
REMARK       I    between atoms: C_4  and  N_6 
REMARK    3  A    between atoms: N_6  and  C_7 
REMARK    4  A    between atoms: C_16  and  N_18 
ROOT
HETATM    1  N   UNL     1       2.402   0.014  -1.554  1.00  0.00    -0.336 N 
HETATM    2  C   UNL     1       1.955   1.093  -2.300  1.00  0.00     0.322 C 
HETATM    3  O   UNL     1       1.417   2.058  -1.780  1.00  0.00    -0.247 OA
HETATM    4  N   UNL     1       2.307   0.946  -3.621  1.00  0.00    -0.295 N 
HETATM    5  H   UNL     1       2.356  -0.870  -2.037  1.00  0.00     0.164 HD
HETATM    6  H   UNL     1       3.038   0.286  -3.820  1.00  0.00     0.172 HD
ENDROOT
BRANCH   1   7
HETATM    7  C   UNL     1       2.215  -0.051  -0.099  1.00  0.00     0.115 C 
HETATM    8  C   UNL     1       0.699  -0.115   0.184  1.00  0.00     0.034 C 
BRANCH   7   9
HETATM    9  C   UNL     1       2.971   1.076   0.743  1.00  0.00     0.241 C 
HETATM   10  C   UNL     1       2.593   0.875   2.235  1.00  0.00     0.045 C 
BRANCH   9  11
HETATM   11  N   UNL     1       4.475   1.093   0.659  1.00  0.00     0.098 N 
HETATM   12  C   UNL     1       5.089   2.216   1.429  1.00  0.00     0.299 C 
HETATM   13  C   UNL     1       4.823   3.596   0.808  1.00  0.00     0.198 C 
HETATM   14  O   UNL     1       5.409   3.670  -0.496  1.00  0.00    -0.388 OA
HETATM   15  C   UNL     1       4.921   2.622  -1.346  1.00  0.00     0.198 C 
HETATM   16  C   UNL     1       5.048   1.224  -0.702  1.00  0.00     0.299 C 
ENDBRANCH   9  11
ENDBRANCH   7   9
ENDBRANCH   1   7
BRANCH   4  17
HETATM   17  C   UNL     1       1.997   1.890  -4.609  1.00  0.00     0.109 A 
HETATM   18  C   UNL     1       2.740   1.876  -5.786  1.00  0.00     0.055 A 
HETATM   19  C   UNL     1       2.492   2.852  -6.757  1.00  0.00    -0.057 A 
HETATM   20  C   UNL     1       3.314   2.931  -8.009  1.00  0.00     0.048 C 
HETATM   21  C   UNL     1       1.479   3.781  -6.531  1.00  0.00     0.031 A 
HETATM   22  C   UNL     1       0.759   3.713  -5.342  1.00  0.00     0.007 A 
HETATM   23  C   UNL     1      -0.344   4.674  -5.036  1.00  0.00     0.068 C 
HETATM   24  N   UNL     1       1.010   2.777  -4.403  1.00  0.00    -0.346 N 
ATOM     25  HN  UNL     1       0.457   2.744  -3.547  1.00  0.00     0.167 HD
ENDBRANCH   4  17
TORSDOF 4
