REMARK  6 active torsions:
REMARK  status: ('A' for Active; 'I' for Inactive)
REMARK    1  A    between atoms: C_2  and  O_3 
REMARK    2  A    between atoms: O_3  and  C_4 
REMARK    3  A    between atoms: C_4  and  C_6 
REMARK       I    between atoms: C_6  and  N_8 
REMARK    4  A    between atoms: N_8  and  C_9 
REMARK    5  A    between atoms: C_9  and  C_10 
REMARK    6  A    between atoms: C_13  and  N_17 
ROOT
HETATM    1  C   UNL     1       8.463  -1.720   4.007  1.00  0.00    -0.025 A 
HETATM    2  C   UNL     1       9.145  -0.540   4.281  1.00  0.00     0.014 A 
HETATM    3  C   UNL     1      10.539  -0.504   4.176  1.00  0.00     0.049 A 
HETATM    4  C   UNL     1      11.258  -1.639   3.798  1.00  0.00     0.103 A 
HETATM    5  N   UNL     1      10.595  -2.792   3.555  1.00  0.00    -0.352 N 
ATOM      6  HN  UNL     1      11.105  -3.635   3.293  1.00  0.00     0.166 HD
HETATM    7  C   UNL     1       9.241  -2.814   3.664  1.00  0.00     0.098 A 
ENDROOT
BRANCH   1   8
HETATM    8  C   UNL     1       6.970  -1.800   4.076  1.00  0.00     0.162 C 
BRANCH   8   9
HETATM    9  N   UNL     1       6.479  -2.172   5.381  1.00  0.00    -0.355 N 
HETATM   10  C   UNL     1       5.117  -2.197   5.611  1.00  0.00     0.246 C 
HETATM   11  O   UNL     1       4.296  -2.059   4.704  1.00  0.00    -0.271 OA
HETATM   12  H   UNL     1       7.062  -2.042   6.203  1.00  0.00     0.162 HD
BRANCH  10  13
HETATM   13  C   UNL     1       4.718  -2.493   7.076  1.00  0.00     0.209 C 
HETATM   14  C   UNL     1       3.314  -1.949   7.346  1.00  0.00     0.049 C 
BRANCH  13  15
HETATM   15  O   UNL     1       5.689  -1.939   7.974  1.00  0.00    -0.377 OA
BRANCH  15  16
HETATM   16  C   UNL     1       5.476  -2.307   9.338  1.00  0.00     0.164 C 
HETATM   17  C   UNL     1       6.608  -1.752  10.179  1.00  0.00     0.033 C 
ENDBRANCH  15  16
ENDBRANCH  13  15
ENDBRANCH  10  13
ENDBRANCH   8   9
ENDBRANCH   1   8
BRANCH   4  18
HETATM   18  N   UNL     1      12.639  -1.631   3.738  1.00  0.00    -0.363 N 
HETATM   19  C   UNL     1      13.402  -0.452   3.301  1.00  0.00     0.150 C 
HETATM   20  C   UNL     1      14.020  -0.681   1.911  1.00  0.00     0.187 C 
HETATM   21  O   UNL     1      14.804  -1.883   1.868  1.00  0.00    -0.388 OA
HETATM   22  C   UNL     1      13.974  -3.018   2.171  1.00  0.00     0.187 C 
HETATM   23  C   UNL     1      13.360  -2.905   3.574  1.00  0.00     0.150 C 
ENDBRANCH   4  18
TORSDOF 6
