REMARK  4 active torsions:
REMARK  status: ('A' for Active; 'I' for Inactive)
REMARK       I    between atoms: C_2  and  N_3 
REMARK    1  A    between atoms: C_2  and  C_13 
REMARK    2  A    between atoms: N_3  and  C_4 
REMARK    3  A    between atoms: C_4  and  C_5 
REMARK    4  A    between atoms: C_5  and  C_6 
ROOT
HETATM    1  C   UNL     1       3.044   1.252  -0.231  1.00  0.00     0.047 A 
HETATM    2  C   UNL     1       2.471   2.457  -0.033  1.00  0.00     0.109 A 
HETATM    3  N   UNL     1       3.157   3.670  -0.161  1.00  0.00    -0.341 N 
HETATM    4  C   UNL     1       2.454   4.944  -0.013  1.00  0.00     0.146 C 
HETATM    5  C   UNL     1       3.382   5.990   0.542  1.00  0.00     0.183 C 
HETATM    6  S   UNL     1       4.713   6.185  -0.597  1.00  0.00     0.233 S 
HETATM    7  O   UNL     1       4.145   6.639  -1.851  1.00  0.00    -0.206 OA
HETATM    8  O   UNL     1       5.723   6.980   0.074  1.00  0.00    -0.206 OA
HETATM    9  N   UNL     1       5.266   4.682  -0.775  1.00  0.00    -0.270 N 
ATOM     10  HN  UNL     1       6.237   4.533  -1.050  1.00  0.00     0.180 HD
HETATM   11  C   UNL     1       4.496   3.660  -0.574  1.00  0.00     0.116 A 
HETATM   12  C   UNL     1       5.159   2.334  -0.814  1.00  0.00     0.050 A 
HETATM   13  C   UNL     1       4.438   1.214  -0.652  1.00  0.00     0.022 A 
ENDROOT
BRANCH   1  14
HETATM   14  C   UNL     1       2.192   0.026  -0.076  1.00  0.00     0.253 C 
HETATM   15  O   UNL     1       0.968   0.080  -0.132  1.00  0.00    -0.268 OA
HETATM   16  N   UNL     1       2.884  -1.140   0.174  1.00  0.00    -0.357 N 
HETATM   17  H   UNL     1       3.863  -1.090   0.416  1.00  0.00     0.162 HD
BRANCH  16  18
HETATM   18  C   UNL     1       2.178  -2.390   0.398  1.00  0.00     0.127 C 
BRANCH  18  19
HETATM   19  C   UNL     1       3.135  -3.571   0.574  1.00  0.00     0.060 C 
BRANCH  19  20
HETATM   20  C   UNL     1       2.399  -4.863   0.793  1.00  0.00    -0.041 A 
HETATM   21  C   UNL     1       2.020  -5.675  -0.280  1.00  0.00     0.010 A 
HETATM   22  C   UNL     1       1.304  -6.845  -0.040  1.00  0.00     0.018 A 
HETATM   23  C   UNL     1       0.988  -7.165   1.269  1.00  0.00     0.087 A 
HETATM   24  N   UNL     1       1.339  -6.409   2.331  1.00  0.00    -0.375 N 
HETATM   25  C   UNL     1       2.032  -5.279   2.070  1.00  0.00     0.094 A 
ATOM     26  HN  UNL     1       1.093  -6.678   3.284  1.00  0.00     0.164 HD
ENDBRANCH  19  20
ENDBRANCH  18  19
ENDBRANCH  16  18
ENDBRANCH   1  14
TORSDOF 4
