REMARK  2 active torsions:
REMARK  status: ('A' for Active; 'I' for Inactive)
REMARK    1  A    between atoms: C_7  and  N_8 
REMARK       I    between atoms: N_8  and  C_9 
REMARK       I    between atoms: C_9  and  N_11 
REMARK    2  A    between atoms: N_11  and  C_12 
ROOT
HETATM    1  N   UNL     1       2.670  -2.464   0.640  1.00  0.00    -0.338 N 
HETATM    2  C   UNL     1       3.303  -2.501   1.866  1.00  0.00     0.321 C 
HETATM    3  O   UNL     1       4.142  -1.678   2.212  1.00  0.00    -0.247 OA
HETATM    4  N   UNL     1       2.933  -3.616   2.589  1.00  0.00    -0.305 N 
HETATM    5  H   UNL     1       1.717  -2.799   0.630  1.00  0.00     0.164 HD
HETATM    6  H   UNL     1       2.768  -4.430   2.015  1.00  0.00     0.171 HD
ENDROOT
BRANCH   1   7
HETATM    7  C   UNL     1       3.044  -1.450  -0.340  1.00  0.00     0.089 C 
HETATM    8  C   UNL     1       2.504  -0.039  -0.008  1.00  0.00     0.004 C 
HETATM    9  C   UNL     1       0.976   0.022   0.100  1.00  0.00     0.012 C 
HETATM   10  C   UNL     1       3.025   0.962  -1.055  1.00  0.00     0.006 C 
HETATM   11  C   UNL     1       2.701   0.544  -2.488  1.00  0.00     0.001 C 
HETATM   12  C   UNL     1       3.157  -0.880  -2.794  1.00  0.00     0.002 C 
HETATM   13  C   UNL     1       2.663  -1.890  -1.758  1.00  0.00     0.026 C 
ENDBRANCH   1   7
BRANCH   4  14
HETATM   14  C   UNL     1       3.463  -3.847   3.853  1.00  0.00     0.092 A 
HETATM   15  C   UNL     1       3.639  -2.973   4.963  1.00  0.00     0.058 A 
HETATM   16  C   UNL     1       3.234  -1.559   5.140  1.00  0.00     0.072 C 
HETATM   17  N   UNL     1       4.202  -3.620   5.998  1.00  0.00    -0.263 N 
HETATM   18  O   UNL     1       4.411  -4.913   5.569  1.00  0.00    -0.240 OA
ATOM     19  HN  UNL     1       4.428  -3.233   6.914  1.00  0.00     0.194 HD
HETATM   20  C   UNL     1       3.961  -5.051   4.294  1.00  0.00     0.101 A 
HETATM   21  C   UNL     1       4.184  -6.370   3.673  1.00  0.00     0.081 C 
ENDBRANCH   4  14
TORSDOF 2
