REMARK  4 active torsions:
REMARK  status: ('A' for Active; 'I' for Inactive)
REMARK    1  A    between atoms: C_2  and  C_3 
REMARK       I    between atoms: C_2  and  N_16 
REMARK    2  A    between atoms: C_3  and  C_4 
REMARK    3  A    between atoms: C_7  and  N_10 
REMARK    4  A    between atoms: N_16  and  C_17 
ROOT
HETATM    1  C   UNL     1       1.847   2.137  -1.276  1.00  0.00     0.026 A 
HETATM    2  C   UNL     1       0.810   1.712  -2.083  1.00  0.00     0.078 A 
HETATM    3  S   UNL     1      -0.034   3.062  -2.707  1.00  0.00    -0.064 SA
HETATM    4  C   UNL     1       0.988   4.114  -1.815  1.00  0.00     0.155 A 
HETATM    5  N   UNL     1       1.931   3.512  -1.125  1.00  0.00    -0.339 N 
ATOM      6  HN  UNL     1       2.629   3.991  -0.556  1.00  0.00     0.168 HD
ENDROOT
BRANCH   1   7
HETATM    7  C   UNL     1       2.851   1.281  -0.587  1.00  0.00     0.160 C 
BRANCH   7   8
HETATM    8  C   UNL     1       2.198   0.311   0.375  1.00  0.00     0.223 C 
HETATM    9  O   UNL     1       2.147  -0.895   0.143  1.00  0.00    -0.273 OA
HETATM   10  N   UNL     1       1.686   0.892   1.523  1.00  0.00    -0.356 N 
HETATM   11  H   UNL     1       1.726   1.903   1.612  1.00  0.00     0.162 HD
BRANCH  10  12
HETATM   12  C   UNL     1       1.113   0.120   2.578  1.00  0.00     0.084 A 
HETATM   13  C   UNL     1       0.395   0.766   3.730  1.00  0.00     0.027 A 
HETATM   14  C   UNL     1       1.745   0.148   3.943  1.00  0.00     0.027 A 
ENDBRANCH  10  12
ENDBRANCH   7   8
ENDBRANCH   1   7
BRANCH   4  15
HETATM   15  N   UNL     1       0.721   5.465  -1.873  1.00  0.00    -0.278 N 
HETATM   16  C   UNL     1      -0.314   6.147  -2.617  1.00  0.00     0.155 C 
HETATM   17  C   UNL     1      -0.271   7.580  -2.111  1.00  0.00     0.145 C 
HETATM   18  N   UNL     1       0.938   7.646  -1.350  1.00  0.00    -0.341 N 
HETATM   19  C   UNL     1       1.474   6.380  -1.127  1.00  0.00     0.324 C 
HETATM   20  H   UNL     1       1.242   8.419  -0.771  1.00  0.00     0.164 HD
HETATM   21  O   UNL     1       2.416   6.206  -0.373  1.00  0.00    -0.247 OA
ENDBRANCH   4  15
TORSDOF 4
