REMARK  6 active torsions:
REMARK  status: ('A' for Active; 'I' for Inactive)
REMARK    1  A    between atoms: O_1  and  C_2 
REMARK    2  A    between atoms: C_2  and  C_3 
REMARK    3  A    between atoms: N_12  and  C_13 
REMARK    4  A    between atoms: C_13  and  C_14 
REMARK    5  A    between atoms: C_14  and  O_15 
REMARK    6  A    between atoms: C_14  and  C_16 
ROOT
HETATM    1  C   UNL     1       2.883   1.502  -0.293  1.00  0.00     0.108 A 
HETATM    2  N   UNL     1       2.244   2.578   0.125  1.00  0.00    -0.342 N 
ATOM      3  HN  UNL     1       1.405   2.607   0.704  1.00  0.00     0.167 HD
HETATM    4  C   UNL     1       2.936   3.649  -0.376  1.00  0.00     0.060 A 
HETATM    5  C   UNL     1       2.683   5.020  -0.220  1.00  0.00     0.032 A 
HETATM    6  C   UNL     1       3.543   5.942  -0.826  1.00  0.00     0.002 A 
HETATM    7  C   UNL     1       4.639   5.505  -1.571  1.00  0.00     0.002 A 
HETATM    8  C   UNL     1       4.910   4.138  -1.730  1.00  0.00     0.032 A 
HETATM    9  C   UNL     1       4.037   3.231  -1.119  1.00  0.00     0.062 A 
HETATM   10  N   UNL     1       3.987   1.853  -1.048  1.00  0.00    -0.330 N 
ENDROOT
BRANCH  10  11
HETATM   11  C   UNL     1       5.005   0.946  -1.557  1.00  0.00     0.167 C 
BRANCH  11  12
HETATM   12  C   UNL     1       4.734   0.418  -2.978  1.00  0.00     0.169 C 
BRANCH  12  13
HETATM   13  O   UNL     1       4.825   1.464  -3.947  1.00  0.00    -0.389 OA
HETATM   14  H   UNL     1       5.707   1.862  -3.882  1.00  0.00     0.210 HD
ENDBRANCH  12  13
BRANCH  12  15
HETATM   15  C   UNL     1       5.676  -0.692  -3.426  1.00  0.00    -0.028 A 
HETATM   16  C   UNL     1       5.205  -1.647  -4.348  1.00  0.00     0.013 A 
HETATM   17  C   UNL     1       6.031  -2.681  -4.799  1.00  0.00     0.043 A 
HETATM   18  C   UNL     1       7.340  -2.760  -4.342  1.00  0.00     0.116 A 
HETATM   19  F   UNL     1       8.132  -3.750  -4.772  1.00  0.00    -0.206 F 
HETATM   20  C   UNL     1       7.836  -1.824  -3.447  1.00  0.00     0.043 A 
HETATM   21  C   UNL     1       7.013  -0.787  -2.996  1.00  0.00     0.013 A 
ENDBRANCH  12  15
ENDBRANCH  11  12
ENDBRANCH  10  11
BRANCH   1  22
HETATM   22  C   UNL     1       2.501   0.104   0.052  1.00  0.00     0.240 C 
BRANCH  22  23
HETATM   23  O   UNL     1       2.297  -0.614  -1.157  1.00  0.00    -0.393 OA
HETATM   24  H   UNL     1       1.656  -1.316  -0.954  1.00  0.00     0.209 HD
ENDBRANCH  22  23
ENDBRANCH   1  22
TORSDOF 6
