REMARK  4 active torsions:
REMARK  status: ('A' for Active; 'I' for Inactive)
REMARK    1  A    between atoms: N_9  and  C_10 
REMARK    2  A    between atoms: C_10  and  C_11 
REMARK    3  A    between atoms: C_11  and  O_12 
REMARK    4  A    between atoms: C_11  and  C_13 
ROOT
HETATM    1  C   UNL     1       0.915  -0.275  -0.682  1.00  0.00     0.163 C 
HETATM    2  N   UNL     1       2.106  -0.821  -1.306  1.00  0.00    -0.288 N 
HETATM    3  C   UNL     1       2.273  -0.778  -2.685  1.00  0.00     0.330 A 
HETATM    4  O   UNL     1       1.458  -0.283  -3.464  1.00  0.00    -0.246 OA
HETATM    5  N   UNL     1       3.427  -1.342  -3.196  1.00  0.00    -0.273 N 
HETATM    6  C   UNL     1       4.419  -2.001  -2.497  1.00  0.00     0.280 A 
HETATM    7  O   UNL     1       5.358  -2.557  -3.055  1.00  0.00    -0.265 OA
HETATM    8  C   UNL     1       4.216  -1.948  -1.093  1.00  0.00     0.149 A 
HETATM    9  N   UNL     1       4.967  -2.362  -0.027  1.00  0.00    -0.333 N 
HETATM   10  C   UNL     1       4.246  -2.061   1.104  1.00  0.00     0.185 A 
HETATM   11  N   UNL     1       3.099  -1.480   0.818  1.00  0.00    -0.336 N 
ATOM     12  HN  UNL     1       2.377  -1.167   1.467  1.00  0.00     0.168 HD
HETATM   13  C   UNL     1       3.096  -1.393  -0.537  1.00  0.00     0.145 A 
HETATM   14  H   UNL     1       3.513  -1.330  -4.200  1.00  0.00     0.173 HD
ENDROOT
BRANCH   9  15
HETATM   15  C   UNL     1       6.293  -2.962  -0.031  1.00  0.00     0.167 C 
BRANCH  15  16
HETATM   16  C   UNL     1       7.399  -1.907   0.144  1.00  0.00     0.169 C 
BRANCH  16  17
HETATM   17  O   UNL     1       7.245  -1.284   1.426  1.00  0.00    -0.389 OA
HETATM   18  H   UNL     1       7.892  -1.677   2.037  1.00  0.00     0.210 HD
ENDBRANCH  16  17
BRANCH  16  19
HETATM   19  C   UNL     1       8.827  -2.415   0.043  1.00  0.00    -0.028 A 
HETATM   20  C   UNL     1       9.822  -1.534  -0.418  1.00  0.00     0.010 A 
HETATM   21  C   UNL     1      11.157  -1.937  -0.506  1.00  0.00     0.001 A 
HETATM   22  C   UNL     1      11.525  -3.219  -0.120  1.00  0.00     0.000 A 
HETATM   23  C   UNL     1      10.557  -4.093   0.368  1.00  0.00     0.001 A 
HETATM   24  C   UNL     1       9.219  -3.697   0.456  1.00  0.00     0.010 A 
ENDBRANCH  16  19
ENDBRANCH  15  16
ENDBRANCH   9  15
TORSDOF 4
