REMARK  5 active torsions:
REMARK  status: ('A' for Active; 'I' for Inactive)
REMARK    1  A    between atoms: O_2  and  C_3 
REMARK    2  A    between atoms: C_9  and  N_10 
REMARK       I    between atoms: N_10  and  C_11 
REMARK       I    between atoms: C_11  and  N_13 
REMARK    3  A    between atoms: N_13  and  C_14 
REMARK    4  A    between atoms: C_14  and  C_15 
REMARK    5  A    between atoms: C_15  and  N_16 
ROOT
HETATM    1  N   UNL     1       0.940  -2.851  -3.378  1.00  0.00    -0.305 N 
HETATM    2  C   UNL     1       0.275  -1.687  -3.672  1.00  0.00     0.320 C 
HETATM    3  O   UNL     1       0.322  -1.078  -4.737  1.00  0.00    -0.247 OA
HETATM    4  N   UNL     1      -0.482  -1.234  -2.608  1.00  0.00    -0.341 N 
HETATM    5  H   UNL     1       0.513  -3.473  -2.701  1.00  0.00     0.171 HD
HETATM    6  H   UNL     1      -0.109  -1.473  -1.699  1.00  0.00     0.164 HD
ENDROOT
BRANCH   1   7
HETATM    7  C   UNL     1       1.992  -3.407  -4.146  1.00  0.00     0.087 A 
HETATM    8  C   UNL     1       2.403  -4.735  -3.949  1.00  0.00     0.169 A 
HETATM    9  N   UNL     1       3.428  -5.319  -4.617  1.00  0.00    -0.345 N 
HETATM   10  C   UNL     1       4.079  -4.559  -5.523  1.00  0.00     0.090 A 
ATOM     11  HN  UNL     1       3.695  -6.288  -4.443  1.00  0.00     0.167 HD
HETATM   12  C   UNL     1       3.764  -3.241  -5.786  1.00  0.00     0.019 A 
HETATM   13  C   UNL     1       2.709  -2.662  -5.084  1.00  0.00     0.035 A 
BRANCH   8  14
HETATM   14  O   UNL     1       1.698  -5.494  -3.025  1.00  0.00    -0.339 OA
HETATM   15  C   UNL     1       2.339  -6.740  -2.746  1.00  0.00     0.211 C 
ENDBRANCH   8  14
ENDBRANCH   1   7
BRANCH   4  16
HETATM   16  C   UNL     1      -1.131   0.067  -2.720  1.00  0.00     0.154 C 
BRANCH  16  17
HETATM   17  C   UNL     1      -2.448   0.006  -3.530  1.00  0.00     0.292 C 
BRANCH  17  18
HETATM   18  N   UNL     1      -3.190   1.281  -3.602  1.00  0.00     0.090 N 
HETATM   19  C   UNL     1      -4.500   1.113  -4.259  1.00  0.00     0.273 C 
HETATM   20  C   UNL     1      -4.475   1.069  -5.796  1.00  0.00     0.034 C 
HETATM   21  C   UNL     1      -3.658   2.207  -6.421  1.00  0.00    -0.015 C 
HETATM   22  C   UNL     1      -4.395   3.550  -6.358  1.00  0.00     0.010 C 
HETATM   23  C   UNL     1      -2.292   2.278  -5.732  1.00  0.00     0.034 C 
HETATM   24  C   UNL     1      -2.435   2.384  -4.213  1.00  0.00     0.273 C 
ENDBRANCH  17  18
ENDBRANCH  16  17
ENDBRANCH   4  16
TORSDOF 5
