REMARK  4 active torsions:
REMARK  status: ('A' for Active; 'I' for Inactive)
REMARK    1  A    between atoms: C_9  and  C_10 
REMARK    2  A    between atoms: C_10  and  C_11 
REMARK       I    between atoms: C_11  and  N_13 
REMARK    3  A    between atoms: N_13  and  C_14 
REMARK    4  A    between atoms: C_14  and  C_15 
ROOT
HETATM    1  C   UNL     1       1.810   3.140  -0.039  1.00  0.00     0.222 C 
HETATM    2  O   UNL     1       0.960   2.259  -0.162  1.00  0.00    -0.273 OA
HETATM    3  N   UNL     1       1.472   4.468   0.146  1.00  0.00    -0.360 N 
HETATM    4  H   UNL     1       2.200   5.157  -0.003  1.00  0.00     0.162 HD
ENDROOT
BRANCH   1   5
HETATM    5  C   UNL     1       3.298   2.831  -0.015  1.00  0.00     0.145 C 
BRANCH   5   6
HETATM    6  C   UNL     1       3.988   2.752  -1.346  1.00  0.00    -0.002 A 
HETATM    7  C   UNL     1       3.487   2.406  -2.638  1.00  0.00     0.030 A 
HETATM    8  C   UNL     1       2.113   2.039  -3.064  1.00  0.00     0.070 C 
HETATM    9  N   UNL     1       4.453   2.417  -3.563  1.00  0.00    -0.303 N 
HETATM   10  N   UNL     1       5.571   2.712  -2.889  1.00  0.00    -0.300 N 
ATOM     11  HN  UNL     1       4.358   2.239  -4.563  1.00  0.00     0.186 HD
HETATM   12  C   UNL     1       6.825   2.755  -3.605  1.00  0.00     0.177 C 
HETATM   13  C   UNL     1       5.355   2.929  -1.554  1.00  0.00     0.033 A 
HETATM   14  C   UNL     1       6.442   3.247  -0.589  1.00  0.00     0.070 C 
ENDBRANCH   5   6
ENDBRANCH   1   5
BRANCH   3  15
HETATM   15  C   UNL     1       0.089   4.915   0.049  1.00  0.00     0.128 C 
BRANCH  15  16
HETATM   16  C   UNL     1      -0.684   4.975   1.373  1.00  0.00     0.018 C 
HETATM   17  C   UNL     1      -0.138   5.995   2.388  1.00  0.00     0.022 C 
HETATM   18  C   UNL     1      -0.769   5.719   3.760  1.00  0.00     0.141 C 
HETATM   19  S   UNL     1      -1.511   4.100   3.681  1.00  0.00     0.144 S 
HETATM   20  O   UNL     1      -0.959   3.271   4.733  1.00  0.00    -0.228 OA
HETATM   21  O   UNL     1      -2.938   4.263   3.493  1.00  0.00    -0.228 OA
HETATM   22  C   UNL     1      -0.782   3.646   2.121  1.00  0.00     0.146 C 
ENDBRANCH  15  16
ENDBRANCH   3  15
TORSDOF 4
