REMARK  4 active torsions:
REMARK  status: ('A' for Active; 'I' for Inactive)
REMARK    1  A    between atoms: O_1  and  C_2 
REMARK    2  A    between atoms: C_2  and  C_3 
REMARK    3  A    between atoms: C_2  and  C_14 
REMARK    4  A    between atoms: C_3  and  N_4 
ROOT
HETATM    1  C   UNL     1       2.316  -0.026   0.054  1.00  0.00     0.172 C 
ENDROOT
BRANCH   1   2
HETATM    2  O   UNL     1       2.851   1.187  -0.486  1.00  0.00    -0.389 OA
HETATM    3  H   UNL     1       3.791   1.035  -0.688  1.00  0.00     0.210 HD
ENDBRANCH   1   2
BRANCH   1   4
HETATM    4  C   UNL     1       2.929  -0.347   1.431  1.00  0.00     0.166 C 
BRANCH   4   5
HETATM    5  N   UNL     1       2.588   0.588   2.489  1.00  0.00    -0.338 N 
HETATM    6  C   UNL     1       2.931   1.913   2.508  1.00  0.00     0.184 A 
HETATM    7  N   UNL     1       2.506   2.515   3.593  1.00  0.00    -0.350 N 
HETATM    8  C   UNL     1       1.879   1.537   4.321  1.00  0.00     0.060 A 
ATOM      9  HN  UNL     1       2.618   3.498   3.841  1.00  0.00     0.166 HD
HETATM   10  C   UNL     1       1.253   1.630   5.573  1.00  0.00     0.032 A 
HETATM   11  C   UNL     1       1.924   0.309   3.661  1.00  0.00     0.062 A 
HETATM   12  C   UNL     1       0.701   0.476   6.139  1.00  0.00     0.002 A 
HETATM   13  C   UNL     1       0.763  -0.745   5.468  1.00  0.00     0.002 A 
HETATM   14  C   UNL     1       1.371  -0.856   4.210  1.00  0.00     0.032 A 
ENDBRANCH   4   5
ENDBRANCH   1   4
BRANCH   1  15
HETATM   15  C   UNL     1       0.807   0.029   0.073  1.00  0.00     0.013 A 
HETATM   16  C   UNL     1       0.106   1.229   0.261  1.00  0.00     0.055 A 
HETATM   17  C   UNL     1      -1.286   1.221   0.320  1.00  0.00     0.117 A 
HETATM   18  F   UNL     1      -1.945   2.371   0.509  1.00  0.00    -0.206 F 
HETATM   19  C   UNL     1      -2.004   0.037   0.190  1.00  0.00     0.045 A 
HETATM   20  C   UNL     1      -1.320  -1.161  -0.002  1.00  0.00     0.046 A 
HETATM   21  C   UNL     1       0.072  -1.156  -0.055  1.00  0.00     0.125 A 
HETATM   22  F   UNL     1       0.717  -2.319  -0.220  1.00  0.00    -0.205 F 
ENDBRANCH   1  15
TORSDOF 4
