REMARK  4 active torsions:
REMARK  status: ('A' for Active; 'I' for Inactive)
REMARK    1  A    between atoms: C_2  and  C_3 
REMARK    2  A    between atoms: C_2  and  S_19 
REMARK       I    between atoms: C_3  and  N_5 
REMARK    3  A    between atoms: N_5  and  C_6 
REMARK    4  A    between atoms: C_9  and  N_13 
ROOT
HETATM    1  C   UNL     1       3.173  -3.646   0.724  1.00  0.00     0.050 A 
HETATM    2  C   UNL     1       4.384  -4.041   0.183  1.00  0.00     0.035 A 
HETATM    3  C   UNL     1       4.706  -5.395   0.113  1.00  0.00     0.051 A 
HETATM    4  C   UNL     1       3.811  -6.364   0.563  1.00  0.00     0.103 A 
HETATM    5  N   UNL     1       2.668  -5.985   1.177  1.00  0.00    -0.350 N 
ATOM      6  HN  UNL     1       2.032  -6.679   1.570  1.00  0.00     0.166 HD
HETATM    7  C   UNL     1       2.384  -4.657   1.259  1.00  0.00     0.119 A 
ENDROOT
BRANCH   1   8
HETATM    8  N   UNL     1       2.737  -2.301   0.744  1.00  0.00    -0.325 N 
HETATM    9  C   UNL     1       3.269  -1.284  -0.036  1.00  0.00     0.240 C 
HETATM   10  O   UNL     1       4.171  -1.416  -0.859  1.00  0.00    -0.272 OA
HETATM   11  H   UNL     1       1.920  -2.103   1.312  1.00  0.00     0.169 HD
BRANCH   9  12
HETATM   12  C   UNL     1       2.635   0.071   0.166  1.00  0.00     0.196 C 
HETATM   13  C   UNL     1       2.581   0.847  -1.147  1.00  0.00     0.036 C 
BRANCH  12  14
HETATM   14  S   UNL     1       3.586   0.929   1.410  1.00  0.00     0.153 S 
HETATM   15  O   UNL     1       3.008   2.252   1.557  1.00  0.00    -0.227 OA
HETATM   16  O   UNL     1       3.676   0.062   2.572  1.00  0.00    -0.227 OA
HETATM   17  C   UNL     1       5.224   1.135   0.738  1.00  0.00     0.162 C 
ENDBRANCH  12  14
ENDBRANCH   9  12
ENDBRANCH   1   8
BRANCH   4  18
HETATM   18  N   UNL     1       4.132  -7.713   0.455  1.00  0.00    -0.363 N 
HETATM   19  C   UNL     1       3.146  -8.679   0.969  1.00  0.00     0.150 C 
HETATM   20  C   UNL     1       3.857 -10.034   1.184  1.00  0.00     0.187 C 
HETATM   21  O   UNL     1       4.496 -10.503  -0.018  1.00  0.00    -0.388 OA
HETATM   22  C   UNL     1       5.442  -9.534  -0.499  1.00  0.00     0.187 C 
HETATM   23  C   UNL     1       4.758  -8.191  -0.792  1.00  0.00     0.150 C 
ENDBRANCH   4  18
TORSDOF 4
