REMARK  5 active torsions:
REMARK  status: ('A' for Active; 'I' for Inactive)
REMARK    1  A    between atoms: C_8  and  N_9 
REMARK       I    between atoms: N_9  and  C_10 
REMARK       I    between atoms: C_10  and  N_12 
REMARK    2  A    between atoms: N_12  and  C_13 
REMARK    3  A    between atoms: C_13  and  C_14 
REMARK    4  A    between atoms: C_14  and  N_15 
REMARK       I    between atoms: N_15  and  C_16 
REMARK    5  A    between atoms: C_16  and  C_18 
ROOT
HETATM    1  N   UNL     1       2.278  -3.587  -1.322  1.00  0.00    -0.306 N 
HETATM    2  C   UNL     1       0.915  -3.713  -1.450  1.00  0.00     0.320 C 
HETATM    3  O   UNL     1       0.297  -3.736  -2.510  1.00  0.00    -0.247 OA
HETATM    4  N   UNL     1       0.259  -3.786  -0.246  1.00  0.00    -0.341 N 
HETATM    5  H   UNL     1       2.695  -3.819  -0.430  1.00  0.00     0.171 HD
HETATM    6  H   UNL     1       0.772  -3.957   0.605  1.00  0.00     0.164 HD
ENDROOT
BRANCH   1   7
HETATM    7  C   UNL     1       3.180  -3.367  -2.397  1.00  0.00     0.077 A 
HETATM    8  C   UNL     1       4.539  -3.603  -2.201  1.00  0.00     0.158 A 
HETATM    9  F   UNL     1       4.997  -4.033  -1.015  1.00  0.00    -0.202 F 
HETATM   10  C   UNL     1       5.416  -3.419  -3.260  1.00  0.00     0.132 A 
HETATM   11  N   UNL     1       5.033  -2.996  -4.487  1.00  0.00    -0.372 N 
HETATM   12  C   UNL     1       3.716  -2.747  -4.649  1.00  0.00     0.090 A 
ATOM     13  HN  UNL     1       5.702  -2.872  -5.247  1.00  0.00     0.164 HD
HETATM   14  C   UNL     1       2.769  -2.910  -3.649  1.00  0.00     0.050 A 
ENDBRANCH   1   7
BRANCH   4  15
HETATM   15  C   UNL     1      -1.194  -3.872  -0.210  1.00  0.00     0.144 C 
BRANCH  15  16
HETATM   16  C   UNL     1      -1.710  -5.304  -0.398  1.00  0.00     0.142 C 
BRANCH  16  17
HETATM   17  N   UNL     1      -3.159  -5.365  -0.462  1.00  0.00    -0.359 N 
HETATM   18  C   UNL     1      -3.930  -5.396   0.672  1.00  0.00     0.221 C 
HETATM   19  O   UNL     1      -3.478  -5.399   1.811  1.00  0.00    -0.273 OA
HETATM   20  H   UNL     1      -3.603  -5.260  -1.364  1.00  0.00     0.162 HD
BRANCH  18  21
HETATM   21  C   UNL     1      -5.398  -5.374   0.417  1.00  0.00     0.078 A 
HETATM   22  C   UNL     1      -6.231  -4.253   0.995  1.00  0.00     0.015 A 
HETATM   23  C   UNL     1      -6.385  -5.645   1.533  1.00  0.00     0.015 A 
ENDBRANCH  18  21
ENDBRANCH  16  17
ENDBRANCH  15  16
ENDBRANCH   4  15
TORSDOF 5
