REMARK  4 active torsions:
REMARK  status: ('A' for Active; 'I' for Inactive)
REMARK    1  A    between atoms: C_2  and  C_3 
REMARK    2  A    between atoms: N_9  and  C_10 
REMARK    3  A    between atoms: C_10  and  C_11 
REMARK    4  A    between atoms: C_11  and  N_12 
REMARK       I    between atoms: N_12  and  C_13 
REMARK       I    between atoms: C_13  and  N_15 
ROOT
HETATM    1  N   UNL     1       4.619  -2.945  -4.272  1.00  0.00    -0.341 N 
HETATM    2  C   UNL     1       5.244  -3.370  -5.418  1.00  0.00     0.318 C 
HETATM    3  O   UNL     1       5.467  -2.602  -6.346  1.00  0.00    -0.247 OA
HETATM    4  N   UNL     1       5.534  -4.711  -5.459  1.00  0.00    -0.329 N 
HETATM    5  C   UNL     1       5.232  -5.696  -4.417  1.00  0.00     0.128 C 
HETATM    6  C   UNL     1       5.507  -7.066  -5.046  1.00  0.00     0.026 C 
HETATM    7  C   UNL     1       6.428  -6.721  -6.207  1.00  0.00     0.010 C 
HETATM    8  C   UNL     1       6.529  -7.729  -7.340  1.00  0.00     0.007 C 
HETATM    9  C   UNL     1       7.407  -7.153  -8.457  1.00  0.00     0.001 C 
HETATM   10  C   UNL     1       6.945  -5.764  -8.911  1.00  0.00     0.002 C 
HETATM   11  C   UNL     1       6.771  -4.783  -7.742  1.00  0.00     0.026 C 
HETATM   12  C   UNL     1       5.836  -5.400  -6.704  1.00  0.00     0.093 C 
HETATM   13  H   UNL     1       4.878  -3.443  -3.433  1.00  0.00     0.164 HD
ENDROOT
BRANCH   1  14
HETATM   14  C   UNL     1       4.256  -1.545  -4.111  1.00  0.00     0.144 C 
BRANCH  14  15
HETATM   15  C   UNL     1       3.304  -1.023  -5.193  1.00  0.00     0.151 C 
BRANCH  15  16
HETATM   16  N   UNL     1       3.005   0.380  -5.028  1.00  0.00    -0.329 N 
HETATM   17  C   UNL     1       3.714   1.455  -5.505  1.00  0.00     0.098 A 
HETATM   18  N   UNL     1       3.080   2.557  -5.150  1.00  0.00    -0.288 N 
HETATM   19  N   UNL     1       1.946   2.200  -4.456  1.00  0.00    -0.295 N 
ATOM     20  HN  UNL     1       3.379   3.510  -5.355  1.00  0.00     0.188 HD
HETATM   21  C   UNL     1       1.913   0.890  -4.399  1.00  0.00     0.201 A 
ATOM     22  HN  UNL     1       1.257   2.838  -4.058  1.00  0.00     0.187 HD
BRANCH  17  23
HETATM   23  C   UNL     1       4.984   1.383  -6.279  1.00  0.00     0.073 C 
HETATM   24  C   UNL     1       4.733   1.324  -7.777  1.00  0.00     0.013 C 
ENDBRANCH  17  23
ENDBRANCH  15  16
ENDBRANCH  14  15
ENDBRANCH   1  14
TORSDOF 4
