REMARK  3 active torsions:
REMARK  status: ('A' for Active; 'I' for Inactive)
REMARK    1  A    between atoms: N_2  and  C_4 
REMARK    2  A    between atoms: C_11  and  N_12 
REMARK       I    between atoms: N_12  and  C_13 
REMARK       I    between atoms: C_13  and  N_15 
REMARK    3  A    between atoms: N_15  and  C_16 
ROOT
HETATM    1  C   UNL     1       5.043  -1.156  -1.875  1.00  0.00     0.132 A 
HETATM    2  N   UNL     1       4.702  -2.470  -1.859  1.00  0.00    -0.337 N 
ATOM      3  HN  UNL     1       5.419  -3.193  -1.912  1.00  0.00     0.168 HD
HETATM    4  C   UNL     1       3.405  -2.800  -1.772  1.00  0.00     0.182 A 
HETATM    5  N   UNL     1       2.384  -1.948  -1.738  1.00  0.00    -0.360 N 
ATOM      6  HN  UNL     1       1.413  -2.257  -1.691  1.00  0.00     0.166 HD
HETATM    7  C   UNL     1       2.729  -0.645  -1.770  1.00  0.00     0.122 A 
HETATM    8  C   UNL     1       4.038  -0.171  -1.823  1.00  0.00     0.096 A 
ENDROOT
BRANCH   8   9
HETATM    9  N   UNL     1       4.320   1.216  -1.886  1.00  0.00    -0.304 N 
HETATM   10  C   UNL     1       3.475   2.220  -1.482  1.00  0.00     0.321 C 
HETATM   11  O   UNL     1       2.362   2.056  -1.000  1.00  0.00    -0.247 OA
HETATM   12  N   UNL     1       4.021   3.477  -1.638  1.00  0.00    -0.334 N 
HETATM   13  H   UNL     1       5.000   3.538  -1.867  1.00  0.00     0.165 HD
HETATM   14  H   UNL     1       5.245   1.460  -2.203  1.00  0.00     0.171 HD
BRANCH  12  15
HETATM   15  C   UNL     1       3.286   4.706  -1.228  1.00  0.00     0.031 C 
HETATM   16  C   UNL     1       2.118   4.968  -2.171  1.00  0.00     0.038 C 
HETATM   17  C   UNL     1       4.221   5.933  -1.001  1.00  0.00     0.031 C 
HETATM   18  C   UNL     1       3.381   6.269   0.249  1.00  0.00     0.005 C 
HETATM   19  C   UNL     1       2.981   4.783   0.301  1.00  0.00     0.031 C 
ENDBRANCH  12  15
ENDBRANCH   8   9
BRANCH   1  20
HETATM   20  N   UNL     1       6.418  -0.871  -1.983  1.00  0.00    -0.374 N 
HETATM   21  C   UNL     1       7.257  -2.038  -2.286  1.00  0.00     0.150 C 
HETATM   22  C   UNL     1       7.037   0.157  -1.156  1.00  0.00     0.150 C 
ENDBRANCH   1  20
TORSDOF 3
