REMARK  5 active torsions:
REMARK  status: ('A' for Active; 'I' for Inactive)
REMARK    1  A    between atoms: O_2  and  C_3 
REMARK    2  A    between atoms: C_7  and  C_9 
REMARK    3  A    between atoms: C_9  and  O_10 
REMARK    4  A    between atoms: C_9  and  C_11 
REMARK    5  A    between atoms: C_11  and  N_12 
ROOT
HETATM    1  C   UNL     1       5.293   1.617  -3.603  1.00  0.00     0.169 C 
ENDROOT
BRANCH   1   2
HETATM    2  C   UNL     1       4.376   1.845  -2.412  1.00  0.00    -0.025 A 
HETATM    3  C   UNL     1       3.987   3.162  -2.111  1.00  0.00     0.010 A 
HETATM    4  C   UNL     1       3.135   3.437  -1.040  1.00  0.00     0.003 A 
HETATM    5  C   UNL     1       2.636   2.397  -0.259  1.00  0.00     0.037 A 
HETATM    6  C   UNL     1       2.989   1.081  -0.550  1.00  0.00     0.068 A 
HETATM    7  C   UNL     1       3.876   0.813  -1.601  1.00  0.00     0.046 A 
BRANCH   6   8
HETATM    8  O   UNL     1       2.550  -0.015   0.145  1.00  0.00    -0.356 OA
HETATM    9  C   UNL     1       1.251   0.118   0.717  1.00  0.00     0.210 C 
ENDBRANCH   6   8
ENDBRANCH   1   2
BRANCH   1  10
HETATM   10  O   UNL     1       6.485   2.379  -3.388  1.00  0.00    -0.389 OA
HETATM   11  H   UNL     1       7.000   1.923  -2.696  1.00  0.00     0.210 HD
ENDBRANCH   1  10
BRANCH   1  12
HETATM   12  C   UNL     1       5.626   0.141  -3.928  1.00  0.00     0.169 C 
BRANCH  12  13
HETATM   13  N   UNL     1       6.525  -0.036  -5.077  1.00  0.00    -0.305 N 
HETATM   14  C   UNL     1       5.998  -0.214  -6.344  1.00  0.00     0.125 C 
HETATM   15  C   UNL     1       6.766  -0.472  -7.407  1.00  0.00     0.117 C 
HETATM   16 CL   UNL     1       6.107  -0.739  -8.967  1.00  0.00    -0.077 Cl
HETATM   17  C   UNL     1       8.235  -0.568  -7.213  1.00  0.00     0.272 C 
HETATM   18  O   UNL     1       9.010  -0.907  -8.102  1.00  0.00    -0.266 OA
HETATM   19  N   UNL     1       8.679  -0.266  -5.954  1.00  0.00    -0.274 N 
HETATM   20  C   UNL     1       7.898  -0.043  -4.848  1.00  0.00     0.329 C 
HETATM   21  H   UNL     1       9.673  -0.331  -5.794  1.00  0.00     0.173 HD
HETATM   22  O   UNL     1       8.408   0.100  -3.738  1.00  0.00    -0.246 OA
ENDBRANCH  12  13
ENDBRANCH   1  12
TORSDOF 5
