REMARK  4 active torsions:
REMARK  status: ('A' for Active; 'I' for Inactive)
REMARK    1  A    between atoms: C_6  and  N_7 
REMARK       I    between atoms: N_7  and  C_8 
REMARK       I    between atoms: C_8  and  N_10 
REMARK    2  A    between atoms: N_10  and  C_11 
REMARK    3  A    between atoms: C_11  and  C_12 
REMARK    4  A    between atoms: C_12  and  C_13 
ROOT
HETATM    1  N   UNL     1       5.188  -2.585  -0.071  1.00  0.00    -0.295 N 
HETATM    2  C   UNL     1       4.433  -3.720  -0.166  1.00  0.00     0.321 C 
HETATM    3  O   UNL     1       3.210  -3.646  -0.113  1.00  0.00    -0.247 OA
HETATM    4  N   UNL     1       5.115  -4.874  -0.393  1.00  0.00    -0.343 N 
HETATM    5  H   UNL     1       4.637  -1.740  -0.054  1.00  0.00     0.172 HD
HETATM    6  H   UNL     1       6.107  -4.819  -0.169  1.00  0.00     0.164 HD
ENDROOT
BRANCH   1   7
HETATM    7  C   UNL     1       6.580  -2.484  -0.007  1.00  0.00     0.109 A 
HETATM    8  C   UNL     1       7.159  -1.233  -0.152  1.00  0.00     0.049 A 
HETATM    9  C   UNL     1       8.548  -1.138  -0.118  1.00  0.00     0.006 A 
HETATM   10  C   UNL     1       9.312  -2.282   0.091  1.00  0.00     0.025 A 
HETATM   11  C   UNL     1       8.660  -3.495   0.259  1.00  0.00     0.007 A 
HETATM   12  C   UNL     1       9.412  -4.770   0.486  1.00  0.00     0.068 C 
HETATM   13  N   UNL     1       7.314  -3.602   0.194  1.00  0.00    -0.346 N 
ATOM     14  HN  UNL     1       6.860  -4.510   0.295  1.00  0.00     0.167 HD
ENDBRANCH   1   7
BRANCH   4  15
HETATM   15  C   UNL     1       4.506  -6.177  -0.467  1.00  0.00     0.125 C 
BRANCH  15  16
HETATM   16  C   UNL     1       3.647  -6.371  -1.716  1.00  0.00     0.024 C 
BRANCH  16  17
HETATM   17  C   UNL     1       3.005  -7.728  -1.720  1.00  0.00    -0.013 A 
HETATM   18  C   UNL     1       3.845  -8.976  -1.815  1.00  0.00     0.005 A 
HETATM   19  C   UNL     1       2.984  -8.561  -2.975  1.00  0.00     0.005 A 
ENDBRANCH  16  17
ENDBRANCH  15  16
ENDBRANCH   4  15
TORSDOF 4
