REMARK  4 active torsions:
REMARK  status: ('A' for Active; 'I' for Inactive)
REMARK    1  A    between atoms: O_1  and  C_2 
REMARK    2  A    between atoms: C_6  and  C_7 
REMARK    3  A    between atoms: C_7  and  N_8 
REMARK       I    between atoms: N_8  and  C_9 
REMARK       I    between atoms: C_9  and  N_11 
REMARK    4  A    between atoms: N_11  and  C_12 
ROOT
HETATM    1  N   UNL     1       0.809   1.932   1.926  1.00  0.00    -0.342 N 
HETATM    2  C   UNL     1      -0.034   2.171   2.999  1.00  0.00     0.322 C 
HETATM    3  O   UNL     1       0.304   1.933   4.150  1.00  0.00    -0.247 OA
HETATM    4  N   UNL     1      -1.210   2.738   2.581  1.00  0.00    -0.289 N 
HETATM    5  H   UNL     1       0.352   1.509   1.123  1.00  0.00     0.164 HD
HETATM    6  H   UNL     1      -1.229   3.184   1.681  1.00  0.00     0.172 HD
ENDROOT
BRANCH   1   7
HETATM    7  C   UNL     1       2.114   1.370   2.209  1.00  0.00     0.131 C 
BRANCH   7   8
HETATM    8  C   UNL     1       2.953   1.178   0.943  1.00  0.00     0.032 C 
HETATM    9  C   UNL     1       2.443   0.067   0.019  1.00  0.00     0.123 C 
HETATM   10  C   UNL     1       2.934  -1.225   0.668  1.00  0.00     0.032 C 
HETATM   11  C   UNL     1       4.194  -0.843   1.447  1.00  0.00     0.003 C 
HETATM   12  C   UNL     1       4.355   0.668   1.283  1.00  0.00     0.009 C 
BRANCH   9  13
HETATM   13  O   UNL     1       1.034   0.083  -0.141  1.00  0.00    -0.395 OA
HETATM   14  H   UNL     1       0.793  -0.733  -0.618  1.00  0.00     0.210 HD
ENDBRANCH   9  13
ENDBRANCH   7   8
ENDBRANCH   1   7
BRANCH   4  15
HETATM   15  C   UNL     1      -2.184   3.075   3.479  1.00  0.00     0.152 A 
HETATM   16  N   UNL     1      -2.350   2.661   4.709  1.00  0.00    -0.346 N 
HETATM   17  C   UNL     1      -3.427   3.310   5.271  1.00  0.00     0.097 A 
ATOM     18  HN  UNL     1      -1.771   1.965   5.179  1.00  0.00     0.167 HD
HETATM   19  C   UNL     1      -4.080   4.200   4.444  1.00  0.00     0.070 A 
HETATM   20  S   UNL     1      -3.336   4.193   2.895  1.00  0.00    -0.064 SA
ENDBRANCH   4  15
TORSDOF 4
