REMARK  5 active torsions:
REMARK  status: ('A' for Active; 'I' for Inactive)
REMARK    1  A    between atoms: N_7  and  C_8 
REMARK    2  A    between atoms: C_8  and  C_9 
REMARK       I    between atoms: C_9  and  N_11 
REMARK    3  A    between atoms: N_11  and  C_12 
REMARK    4  A    between atoms: C_12  and  C_13 
REMARK    5  A    between atoms: C_13  and  C_14 
ROOT
HETATM    1  C   UNL     1       7.376  -0.215   0.131  1.00  0.00     0.237 C 
HETATM    2  O   UNL     1       7.150  -1.417   0.022  1.00  0.00    -0.272 OA
HETATM    3  N   UNL     1       8.676   0.266   0.136  1.00  0.00    -0.359 N 
HETATM    4  H   UNL     1       8.887   1.256   0.188  1.00  0.00     0.162 HD
ENDROOT
BRANCH   1   5
HETATM    5  C   UNL     1       6.245   0.788   0.191  1.00  0.00     0.253 C 
BRANCH   5   6
HETATM    6  N   UNL     1       5.378   0.639   1.349  1.00  0.00    -0.271 N 
HETATM    7  C   UNL     1       4.552  -0.395   1.731  1.00  0.00     0.096 A 
HETATM    8  N   UNL     1       3.830  -0.005   2.761  1.00  0.00    -0.334 N 
HETATM    9  C   UNL     1       4.440  -1.732   1.106  1.00  0.00     0.091 C 
HETATM   10  C   UNL     1       4.216   1.283   2.969  1.00  0.00     0.093 A 
ATOM     11  HN  UNL     1       3.140  -0.545   3.283  1.00  0.00     0.168 HD
HETATM   12  C   UNL     1       3.614   2.105   4.037  1.00  0.00     0.090 C 
HETATM   13  N   UNL     1       5.153   1.730   2.126  1.00  0.00    -0.285 N 
ATOM     14  HN  UNL     1       5.587   2.652   2.079  1.00  0.00     0.188 HD
ENDBRANCH   5   6
ENDBRANCH   1   5
BRANCH   3  15
HETATM   15  C   UNL     1       9.756  -0.708   0.079  1.00  0.00     0.127 C 
BRANCH  15  16
HETATM   16  C   UNL     1      11.185  -0.160   0.049  1.00  0.00     0.053 C 
BRANCH  16  17
HETATM   17  C   UNL     1      11.631   0.651   1.249  1.00  0.00    -0.082 A 
HETATM   18  C   UNL     1      12.165   1.869   1.083  1.00  0.00    -0.024 A 
HETATM   19  C   UNL     1      12.727   2.715   2.172  1.00  0.00     0.027 A 
HETATM   20  C   UNL     1      12.628   2.175   3.593  1.00  0.00     0.004 A 
HETATM   21  C   UNL     1      12.031   0.787   3.808  1.00  0.00     0.005 A 
HETATM   22  C   UNL     1      11.556  -0.013   2.594  1.00  0.00     0.034 A 
ENDBRANCH  16  17
ENDBRANCH  15  16
ENDBRANCH   3  15
TORSDOF 5
