REMARK  5 active torsions:
REMARK  status: ('A' for Active; 'I' for Inactive)
REMARK    1  A    between atoms: C_2  and  N_3 
REMARK    2  A    between atoms: C_5  and  N_6 
REMARK       I    between atoms: N_6  and  C_7 
REMARK       I    between atoms: C_7  and  N_9 
REMARK    3  A    between atoms: N_9  and  C_10 
REMARK    4  A    between atoms: C_10  and  C_12 
REMARK       I    between atoms: C_12  and  N_14 
REMARK    5  A    between atoms: N_14  and  C_15 
ROOT
HETATM    1  N   UNL     1       3.749   3.762   3.258  1.00  0.00    -0.306 N 
HETATM    2  C   UNL     1       3.402   4.939   2.634  1.00  0.00     0.321 C 
HETATM    3  O   UNL     1       3.455   5.161   1.428  1.00  0.00    -0.247 OA
HETATM    4  N   UNL     1       2.912   5.883   3.506  1.00  0.00    -0.330 N 
HETATM    5  H   UNL     1       3.589   3.680   4.251  1.00  0.00     0.171 HD
HETATM    6  H   UNL     1       3.173   5.852   4.485  1.00  0.00     0.165 HD
ENDROOT
BRANCH   4   7
HETATM    7  C   UNL     1       2.470   7.178   2.991  1.00  0.00     0.174 C 
HETATM    8  C   UNL     1       1.011   7.097   2.552  1.00  0.00     0.042 C 
BRANCH   7   9
HETATM    9  C   UNL     1       2.681   8.280   4.048  1.00  0.00     0.240 C 
HETATM   10  O   UNL     1       3.091   8.033   5.181  1.00  0.00    -0.271 OA
HETATM   11  N   UNL     1       2.408   9.557   3.595  1.00  0.00    -0.355 N 
HETATM   12  H   UNL     1       1.985   9.671   2.682  1.00  0.00     0.162 HD
BRANCH  11  13
HETATM   13  C   UNL     1       2.526  10.729   4.436  1.00  0.00     0.084 C 
HETATM   14  C   UNL     1       1.269  10.999   5.268  1.00  0.00     0.025 C 
HETATM   15  C   UNL     1       1.172  12.521   5.402  1.00  0.00     0.002 C 
HETATM   16  C   UNL     1       2.346  13.096   4.617  1.00  0.00     0.002 C 
HETATM   17  C   UNL     1       2.698  12.006   3.619  1.00  0.00     0.025 C 
ENDBRANCH  11  13
ENDBRANCH   7   9
ENDBRANCH   4   7
BRANCH   1  18
HETATM   18  C   UNL     1       4.196   2.635   2.588  1.00  0.00     0.070 A 
HETATM   19  C   UNL     1       4.434   2.492   1.242  1.00  0.00     0.141 A 
HETATM   20  N   UNL     1       4.822   1.203   1.043  1.00  0.00    -0.302 N 
HETATM   21  N   UNL     1       4.879   0.482   2.180  1.00  0.00    -0.308 N 
HETATM   22  C   UNL     1       4.496   1.357   3.118  1.00  0.00     0.138 A 
ATOM     23  HN  UNL     1       5.149  -0.495   2.298  1.00  0.00     0.186 HD
BRANCH  20  24
HETATM   24  C   UNL     1       5.107   0.592  -0.240  1.00  0.00     0.143 C 
HETATM   25  C   UNL     1       6.559   0.759  -0.648  1.00  0.00     0.028 C 
ENDBRANCH  20  24
ENDBRANCH   1  18
TORSDOF 5
