REMARK  5 active torsions:
REMARK  status: ('A' for Active; 'I' for Inactive)
REMARK    1  A    between atoms: C_2  and  C_5 
REMARK    2  A    between atoms: C_5  and  N_6 
REMARK    3  A    between atoms: N_6  and  C_7 
REMARK    4  A    between atoms: C_7  and  C_8 
REMARK    5  A    between atoms: C_14  and  N_15 
ROOT
HETATM    1  C   UNL     1       6.417   2.627   0.882  1.00  0.00     0.014 A 
HETATM    2  C   UNL     1       7.154   3.103   1.984  1.00  0.00     0.014 A 
HETATM    3  C   UNL     1       8.537   3.003   2.007  1.00  0.00     0.018 A 
HETATM    4  C   UNL     1       9.147   2.414   0.922  1.00  0.00     0.089 A 
HETATM    5  N   UNL     1       8.481   1.957  -0.156  1.00  0.00    -0.352 N 
ATOM      6  HN  UNL     1       8.988   1.532  -0.932  1.00  0.00     0.166 HD
HETATM    7  C   UNL     1       7.124   2.068  -0.200  1.00  0.00     0.111 A 
ENDROOT
BRANCH   1   8
HETATM    8  C   UNL     1       4.909   2.718   0.980  1.00  0.00     0.312 C 
BRANCH   8   9
HETATM    9  N   UNL     1       4.174   1.462   0.820  1.00  0.00     0.088 N 
HETATM   10  H   UNL     1       3.177   1.662   0.848  1.00  0.00     0.316 HD
BRANCH   9  11
HETATM   11  C   UNL     1       4.497   0.445   1.825  1.00  0.00     0.278 C 
BRANCH  11  12
HETATM   12  C   UNL     1       3.800  -0.914   1.524  1.00  0.00    -0.025 C 
HETATM   13  C   UNL     1       4.272  -1.467   0.167  1.00  0.00     0.016 C 
HETATM   14  C   UNL     1       2.269  -0.765   1.506  1.00  0.00     0.016 C 
HETATM   15  C   UNL     1       4.179  -1.929   2.620  1.00  0.00     0.016 C 
ENDBRANCH  11  12
ENDBRANCH   9  11
ENDBRANCH   8   9
ENDBRANCH   1   8
BRANCH   7  16
HETATM   16  N   UNL     1       6.538   1.588  -1.341  1.00  0.00    -0.363 N 
HETATM   17  C   UNL     1       7.004   0.324  -1.912  1.00  0.00     0.150 C 
HETATM   18  C   UNL     1       7.327   0.480  -3.403  1.00  0.00     0.187 C 
HETATM   19  O   UNL     1       6.234   1.075  -4.126  1.00  0.00    -0.388 OA
HETATM   20  C   UNL     1       5.959   2.380  -3.593  1.00  0.00     0.187 C 
HETATM   21  C   UNL     1       5.542   2.320  -2.113  1.00  0.00     0.150 C 
ENDBRANCH   7  16
TORSDOF 5
