REMARK  5 active torsions:
REMARK  status: ('A' for Active; 'I' for Inactive)
REMARK    1  A    between atoms: O_2  and  C_3 
REMARK    2  A    between atoms: C_3  and  C_4 
REMARK    3  A    between atoms: C_4  and  N_5 
REMARK    4  A    between atoms: C_7  and  N_8 
REMARK       I    between atoms: N_8  and  C_9 
REMARK       I    between atoms: C_9  and  N_11 
REMARK    5  A    between atoms: N_11  and  C_12 
ROOT
HETATM    1  N   UNL     1       4.750   1.456  -2.301  1.00  0.00    -0.320 N 
HETATM    2  C   UNL     1       4.652   2.831  -2.173  1.00  0.00     0.123 A 
HETATM    3  C   UNL     1       4.800   3.675  -3.209  1.00  0.00     0.052 A 
HETATM    4  C   UNL     1       5.132   3.104  -4.502  1.00  0.00     0.036 A 
HETATM    5  C   UNL     1       5.260   1.776  -4.660  1.00  0.00     0.077 A 
HETATM    6  C   UNL     1       5.038   0.848  -3.517  1.00  0.00     0.247 A 
HETATM    7  O   UNL     1       5.114  -0.362  -3.697  1.00  0.00    -0.268 OA
ENDROOT
BRANCH   3   8
HETATM    8  N   UNL     1       4.622   5.046  -3.132  1.00  0.00    -0.308 N 
HETATM    9  C   UNL     1       4.321   5.759  -1.988  1.00  0.00     0.321 C 
HETATM   10  O   UNL     1       4.242   5.290  -0.857  1.00  0.00    -0.247 OA
HETATM   11  N   UNL     1       4.102   7.104  -2.204  1.00  0.00    -0.338 N 
HETATM   12  H   UNL     1       4.234   7.513  -3.115  1.00  0.00     0.164 HD
HETATM   13  H   UNL     1       4.708   5.573  -3.987  1.00  0.00     0.170 HD
BRANCH  11  14
HETATM   14  C   UNL     1       3.824   7.950  -1.080  1.00  0.00     0.086 A 
HETATM   15  C   UNL     1       2.396   8.201  -0.676  1.00  0.00     0.027 A 
HETATM   16  C   UNL     1       3.242   9.325  -1.199  1.00  0.00     0.027 A 
ENDBRANCH  11  14
ENDBRANCH   3   8
BRANCH   1  17
HETATM   17  C   UNL     1       4.406   0.626  -1.144  1.00  0.00     0.158 C 
BRANCH  17  18
HETATM   18  C   UNL     1       5.587  -0.147  -0.561  1.00  0.00     0.187 C 
BRANCH  18  19
HETATM   19  O   UNL     1       5.135  -0.854   0.599  1.00  0.00    -0.394 OA
HETATM   20  C   UNL     1       6.169  -1.653   1.157  1.00  0.00     0.201 C 
ENDBRANCH  18  19
ENDBRANCH  17  18
ENDBRANCH   1  17
TORSDOF 5
