REMARK  2 active torsions:
REMARK  status: ('A' for Active; 'I' for Inactive)
REMARK    1  A    between atoms: C_9  and  C_10 
REMARK    2  A    between atoms: C_10  and  C_11 
ROOT
HETATM    1  C   UNL     2       5.742   0.636   0.429  1.00  0.00     0.176 C 
HETATM    2  N   UNL     2       4.341   0.238   0.452  1.00  0.00    -0.269 N 
HETATM    3  N   UNL     2       3.948  -1.025   0.488  1.00  0.00    -0.005 NA
HETATM    4  N   UNL     2       2.627  -1.063   0.494  1.00  0.00    -0.007 NA
HETATM    5  N   UNL     2       2.145   0.169   0.461  1.00  0.00    -0.274 N 
ATOM      6  HN  UNL     2       1.163   0.444   0.455  1.00  0.00     0.185 HD
HETATM    7  C   UNL     2       3.214   0.986   0.437  1.00  0.00     0.110 A 
ENDROOT
BRANCH   7   8
HETATM    8  C   UNL     2       3.132   2.503   0.403  1.00  0.00     0.114 C 
BRANCH   8   9
HETATM    9  C   UNL     2       1.672   3.033   0.386  1.00  0.00     0.227 C 
HETATM   10  C   UNL     2       1.553   4.569   0.297  1.00  0.00     0.037 C 
HETATM   11  C   UNL     2       0.350   4.895   1.187  1.00  0.00     0.032 C 
HETATM   12  C   UNL     2      -0.268   3.545   1.461  1.00  0.00     0.270 C 
HETATM   13  N   UNL     2       0.888   2.662   1.570  1.00  0.00     0.088 N 
HETATM   14  H   UNL     2       0.557   1.673   1.525  1.00  0.00     0.316 HD
ENDBRANCH   8   9
ENDBRANCH   7   8
TORSDOF 2
