REMARK  3 active torsions:
REMARK  status: ('A' for Active; 'I' for Inactive)
REMARK    1  A    between atoms: O_1  and  C_2 
REMARK    2  A    between atoms: C_2  and  C_3 
REMARK    3  A    between atoms: C_3  and  N_4 
ROOT
HETATM    1  N   UNL     1       4.322   0.921  -0.976  1.00  0.00    -0.289 N 
HETATM    2  C   UNL     1       5.123   1.744  -0.214  1.00  0.00     0.373 A 
HETATM    3  O   UNL     1       4.732   2.588   0.582  1.00  0.00    -0.237 OA
HETATM    4  O   UNL     1       6.482   1.498  -0.464  1.00  0.00    -0.259 OA
HETATM    5  C   UNL     1       6.432   0.511  -1.435  1.00  0.00     0.107 A 
HETATM    6  C   UNL     1       7.525  -0.082  -2.032  1.00  0.00     0.040 A 
HETATM    7  C   UNL     1       7.277  -1.058  -3.003  1.00  0.00     0.003 A 
HETATM    8  C   UNL     1       5.958  -1.405  -3.355  1.00  0.00     0.002 A 
HETATM    9  C   UNL     1       4.866  -0.789  -2.735  1.00  0.00     0.033 A 
HETATM   10  C   UNL     1       5.141   0.158  -1.774  1.00  0.00     0.073 A 
ENDROOT
BRANCH   1  11
HETATM   11  C   UNL     1       2.878   0.919  -0.987  1.00  0.00     0.160 C 
BRANCH  11  12
HETATM   12  C   UNL     1       2.287   2.003  -1.890  1.00  0.00     0.184 C 
BRANCH  12  13
HETATM   13  O   UNL     1       2.561   1.719  -3.261  1.00  0.00    -0.399 OA
HETATM   14  H   UNL     1       2.298   2.505  -3.770  1.00  0.00     0.209 HD
ENDBRANCH  12  13
ENDBRANCH  11  12
ENDBRANCH   1  11
TORSDOF 3
