REMARK  7 active torsions:
REMARK  status: ('A' for Active; 'I' for Inactive)
REMARK    1  A    between atoms: C_2  and  N_7 
REMARK    2  A    between atoms: N_3  and  C_16 
REMARK    3  A    between atoms: C_11  and  C_14 
REMARK    4  A    between atoms: C_14  and  C_19 
REMARK    5  A    between atoms: C_15  and  C_16 
REMARK    6  A    between atoms: C_15  and  C_27 
REMARK    7  A    between atoms: C_27  and  O_28 
ROOT
HETATM    1  C   UNL     1       0.416  -0.801   0.128  1.00  0.00     0.122 A 
HETATM    2  C   UNL     1      -0.800  -1.534   0.125  1.00  0.00     0.136 A 
HETATM    3  N   UNL     1       1.624   1.025   0.078  1.00  0.00    -0.326 N 
HETATM    4  C   UNL     1       0.329   0.585   0.047  1.00  0.00     0.140 A 
HETATM    5  N   UNL     1       1.745  -1.185   0.184  1.00  0.00    -0.346 N 
ATOM      6  HN  UNL     1       2.110  -2.136   0.230  1.00  0.00     0.167 HD
HETATM    7  C   UNL     1       2.437  -0.069   0.166  1.00  0.00     0.185 A 
HETATM    8  N   UNL     1      -1.945  -0.791   0.015  1.00  0.00    -0.337 N 
ATOM      9  HN  UNL     1      -2.853  -1.255  -0.007  1.00  0.00     0.168 HD
HETATM   10  N   UNL     1      -0.779   1.337  -0.052  1.00  0.00    -0.336 N 
ATOM     11  HN  UNL     1      -0.789   2.355  -0.110  1.00  0.00     0.168 HD
HETATM   12  C   UNL     1      -1.875   0.555  -0.064  1.00  0.00     0.183 A 
ENDROOT
BRANCH   2  13
HETATM   13  N   UNL     1      -0.904  -2.924   0.170  1.00  0.00    -0.356 N 
HETATM   14  C   UNL     1       0.151  -3.739   0.828  1.00  0.00     0.115 C 
HETATM   15  C   UNL     1       0.054  -5.166   0.240  1.00  0.00     0.193 C 
HETATM   16  O   UNL     1      -1.237  -5.736   0.503  1.00  0.00    -0.388 OA
HETATM   17  C   UNL     1      -2.251  -4.973  -0.177  1.00  0.00     0.187 C 
HETATM   18  C   UNL     1      -2.264  -3.491   0.241  1.00  0.00     0.151 C 
BRANCH  14  19
HETATM   19  C   UNL     1      -0.035  -3.722   2.356  1.00  0.00     0.098 C 
BRANCH  19  20
HETATM   20  C   UNL     1       1.044  -4.484   3.092  1.00  0.00     0.355 C 
HETATM   21  F   UNL     1       2.258  -3.943   2.833  1.00  0.00    -0.214 F 
HETATM   22  F   UNL     1       0.842  -4.358   4.430  1.00  0.00    -0.214 F 
ENDBRANCH  19  20
ENDBRANCH  14  19
ENDBRANCH   2  13
BRANCH   3  23
HETATM   23  C   UNL     1       2.071   2.408   0.107  1.00  0.00     0.147 C 
BRANCH  23  24
HETATM   24  C   UNL     1       2.258   3.036  -1.269  1.00  0.00     0.040 C 
HETATM   25  C   UNL     1       3.375   2.441  -2.152  1.00  0.00     0.183 C 
HETATM   26  O   UNL     1       4.033   3.723  -2.253  1.00  0.00    -0.389 OA
HETATM   27  C   UNL     1       3.180   4.271  -1.219  1.00  0.00     0.183 C 
BRANCH  24  28
HETATM   28  C   UNL     1       0.975   3.268  -2.057  1.00  0.00     0.179 C 
BRANCH  28  29
HETATM   29  O   UNL     1       0.049   4.001  -1.263  1.00  0.00    -0.400 OA
HETATM   30  H   UNL     1      -0.501   3.338  -0.793  1.00  0.00     0.209 HD
ENDBRANCH  28  29
ENDBRANCH  24  28
ENDBRANCH  23  24
ENDBRANCH   3  23
TORSDOF 7
