REMARK  5 active torsions:
REMARK  status: ('A' for Active; 'I' for Inactive)
REMARK    1  A    between atoms: C_2  and  N_3 
REMARK    2  A    between atoms: C_2  and  C_19 
REMARK       I    between atoms: N_3  and  C_4 
REMARK    3  A    between atoms: C_4  and  C_6 
REMARK    4  A    between atoms: C_6  and  N_7 
REMARK    5  A    between atoms: C_9  and  N_14 
ROOT
HETATM    1  C   UNL     1       4.085   0.515   1.025  1.00  0.00     0.055 C 
HETATM    2  C   UNL     1       2.936   0.058   0.106  1.00  0.00     0.122 C 
HETATM    3  C   UNL     1       1.634   0.574   0.616  1.00  0.00     0.091 C 
HETATM    4  N   UNL     1       0.611   0.984   0.985  1.00  0.00    -0.195 NA
ENDROOT
BRANCH   2   5
HETATM    5  N   UNL     1       2.920  -1.398  -0.060  1.00  0.00    -0.338 N 
HETATM    6  C   UNL     1       2.853  -2.280   0.993  1.00  0.00     0.237 C 
HETATM    7  O   UNL     1       2.778  -1.936   2.169  1.00  0.00    -0.272 OA
HETATM    8  H   UNL     1       3.120  -1.783  -0.973  1.00  0.00     0.164 HD
BRANCH   6   9
HETATM    9  C   UNL     1       2.987  -3.752   0.602  1.00  0.00     0.234 C 
BRANCH   9  10
HETATM   10  N   UNL     1       4.370  -4.201   0.759  1.00  0.00    -0.314 N 
HETATM   11  C   UNL     1       4.788  -4.750   1.970  1.00  0.00     0.130 C 
HETATM   12  C   UNL     1       6.046  -5.199   2.123  1.00  0.00     0.118 C 
HETATM   13  C   UNL     1       6.967  -5.168   1.006  1.00  0.00     0.043 C 
HETATM   14  C   UNL     1       6.606  -4.591  -0.150  1.00  0.00     0.077 C 
HETATM   15  C   UNL     1       5.247  -3.996  -0.305  1.00  0.00     0.247 C 
HETATM   16  O   UNL     1       4.955  -3.382  -1.327  1.00  0.00    -0.268 OA
BRANCH  12  17
HETATM   17  N   UNL     1       6.453  -5.715   3.428  1.00  0.00    -0.114 N 
HETATM   18  O   UNL     1       7.626  -6.092   3.548  1.00  0.00    -0.532 OA
HETATM   19  O   UNL     1       5.611  -5.742   4.340  1.00  0.00    -0.532 OA
ENDBRANCH  12  17
ENDBRANCH   9  10
ENDBRANCH   6   9
ENDBRANCH   2   5
BRANCH   2  20
HETATM   20  C   UNL     1       3.096   0.783  -1.238  1.00  0.00     0.028 A 
HETATM   21  C   UNL     1       2.192   0.568  -2.437  1.00  0.00     0.009 A 
HETATM   22  C   UNL     1       3.632   0.136  -2.505  1.00  0.00     0.009 A 
ENDBRANCH   2  20
TORSDOF 5
