REMARK  4 active torsions:
REMARK  status: ('A' for Active; 'I' for Inactive)
REMARK    1  A    between atoms: N_2  and  C_4 
REMARK    2  A    between atoms: N_9  and  C_10 
REMARK    3  A    between atoms: C_10  and  C_11 
REMARK       I    between atoms: C_11  and  N_13 
REMARK    4  A    between atoms: N_13  and  C_14 
ROOT
HETATM    1  C   UNL     1       3.600  -4.013  -2.604  1.00  0.00     0.234 C 
ENDROOT
BRANCH   1   2
HETATM    2  N   UNL     1       2.708  -3.264  -3.487  1.00  0.00    -0.314 N 
HETATM    3  C   UNL     1       2.209  -3.914  -4.614  1.00  0.00     0.247 A 
HETATM    4  C   UNL     1       1.369  -3.085  -5.527  1.00  0.00     0.077 A 
HETATM    5  O   UNL     1       2.423  -5.092  -4.883  1.00  0.00    -0.268 OA
HETATM    6  C   UNL     1       1.067  -1.817  -5.211  1.00  0.00     0.043 A 
HETATM    7  C   UNL     1       1.567  -1.239  -3.985  1.00  0.00     0.118 A 
HETATM    8  C   UNL     1       2.364  -1.949  -3.170  1.00  0.00     0.130 A 
BRANCH   7   9
HETATM    9  N   UNL     1       1.233   0.130  -3.599  1.00  0.00    -0.114 N 
HETATM   10  O   UNL     1       1.997   0.721  -2.824  1.00  0.00    -0.532 OA
HETATM   11  O   UNL     1       0.211   0.620  -4.097  1.00  0.00    -0.532 OA
ENDBRANCH   7   9
ENDBRANCH   1   2
BRANCH   1  12
HETATM   12  C   UNL     1       2.837  -4.671  -1.457  1.00  0.00     0.236 C 
HETATM   13  O   UNL     1       2.546  -4.047  -0.437  1.00  0.00    -0.272 OA
HETATM   14  N   UNL     1       2.470  -5.984  -1.676  1.00  0.00    -0.355 N 
HETATM   15  H   UNL     1       2.463  -6.310  -2.640  1.00  0.00     0.162 HD
BRANCH  14  16
HETATM   16  C   UNL     1       1.720  -6.739  -0.674  1.00  0.00     0.084 C 
HETATM   17  C   UNL     1       1.952  -8.249  -0.816  1.00  0.00     0.025 C 
HETATM   18  C   UNL     1       1.231  -8.859  -2.017  1.00  0.00     0.002 C 
HETATM   19  C   UNL     1      -0.252  -8.501  -2.037  1.00  0.00     0.000 C 
HETATM   20  C   UNL     1      -0.472  -6.995  -1.938  1.00  0.00     0.002 C 
HETATM   21  C   UNL     1       0.222  -6.407  -0.712  1.00  0.00     0.025 C 
ENDBRANCH  14  16
ENDBRANCH   1  12
TORSDOF 4
