REMARK  4 active torsions:
REMARK  status: ('A' for Active; 'I' for Inactive)
REMARK    1  A    between atoms: O_2  and  C_3 
REMARK    2  A    between atoms: C_3  and  C_4 
REMARK    3  A    between atoms: C_4  and  N_5 
REMARK    4  A    between atoms: C_6  and  N_18 
ROOT
HETATM    1  N   UNL     1       4.744   2.560  -0.407  1.00  0.00    -0.172 N 
HETATM    2  C   UNL     1       4.068   3.696   0.040  1.00  0.00     0.685 A 
HETATM    3  N   UNL     1       4.711   4.783  -0.361  1.00  0.00    -0.174 N 
ATOM      4  HN  UNL     1       4.411   5.751  -0.242  1.00  0.00     0.186 HD
HETATM    5  C   UNL     1       5.856   4.349  -0.965  1.00  0.00     0.160 A 
HETATM    6  N   UNL     1       6.863   5.121  -1.516  1.00  0.00    -0.287 N 
HETATM    7  C   UNL     1       6.837   6.566  -1.527  1.00  0.00     0.163 C 
HETATM    8  C   UNL     1       7.967   4.491  -2.084  1.00  0.00     0.330 A 
HETATM    9  O   UNL     1       8.913   5.095  -2.596  1.00  0.00    -0.246 OA
HETATM   10  N   UNL     1       7.983   3.114  -2.069  1.00  0.00    -0.273 N 
HETATM   11  C   UNL     1       7.029   2.279  -1.537  1.00  0.00     0.280 A 
HETATM   12  O   UNL     1       7.173   1.062  -1.560  1.00  0.00    -0.265 OA
HETATM   13  C   UNL     1       5.920   2.985  -0.980  1.00  0.00     0.164 A 
HETATM   14  H   UNL     1       8.794   2.672  -2.469  1.00  0.00     0.173 HD
ENDROOT
BRANCH   2  15
HETATM   15  N   UNL     1       2.869   3.660   0.696  1.00  0.00    -0.214 N 
HETATM   16  C   UNL     1       2.020   4.871   0.700  1.00  0.00     0.171 C 
HETATM   17  C   UNL     1       1.918   5.523   2.101  1.00  0.00     0.292 C 
HETATM   18  N   UNL     1       1.541   4.609   3.203  1.00  0.00     0.087 N 
HETATM   19  C   UNL     1       0.140   4.202   3.135  1.00  0.00     0.310 C 
HETATM   20  C   UNL     1       2.453   3.453   3.176  1.00  0.00     0.292 C 
HETATM   21  C   UNL     1       2.598   2.739   1.814  1.00  0.00     0.171 C 
ENDBRANCH   2  15
BRANCH   1  22
HETATM   22  C   UNL     1       4.325   1.175  -0.354  1.00  0.00     0.174 C 
BRANCH  22  23
HETATM   23  C   UNL     1       3.002   0.843  -1.034  1.00  0.00     0.187 C 
BRANCH  23  24
HETATM   24  O   UNL     1       2.806  -0.568  -0.885  1.00  0.00    -0.394 OA
HETATM   25  C   UNL     1       1.570  -1.013  -1.420  1.00  0.00     0.201 C 
ENDBRANCH  23  24
ENDBRANCH  22  23
ENDBRANCH   1  22
TORSDOF 4
