REMARK  1 active torsions:
REMARK  status: ('A' for Active; 'I' for Inactive)
REMARK    1  A    between atoms: C_4  and  C_7 
ROOT
HETATM    1  C   UNL     1       0.729   1.217  -0.453  1.00  0.00     0.295 C 
HETATM    2  C   UNL     1       1.411   0.020   0.227  1.00  0.00     0.198 C 
HETATM    3  O   UNL     1       0.722  -1.215  -0.012  1.00  0.00    -0.376 OA
HETATM    4  C   UNL     1      -0.679  -1.149   0.330  1.00  0.00     0.206 C 
HETATM    5  C   UNL     1      -1.366   0.071  -0.327  1.00  0.00     0.308 C 
HETATM    6  N   UNL     1      -0.687   1.362  -0.073  1.00  0.00     0.088 N 
HETATM    7  H   UNL     1      -0.722   1.509   0.944  1.00  0.00     0.316 HD
ENDROOT
BRANCH   4   8
HETATM    8  C   UNL     1      -0.837  -1.174   1.835  1.00  0.00     0.081 A 
HETATM    9  N   UNL     1      -0.842  -0.109   2.618  1.00  0.00    -0.361 N 
HETATM   10  C   UNL     1      -1.008  -0.494   3.933  1.00  0.00     0.096 A 
ATOM     11  HN  UNL     1      -0.739   0.854   2.298  1.00  0.00     0.165 HD
HETATM   12  C   UNL     1      -1.134  -1.847   4.146  1.00  0.00     0.068 A 
HETATM   13  S   UNL     1      -1.032  -2.680   2.654  1.00  0.00    -0.085 SA
ENDBRANCH   4   8
TORSDOF 1
