REMARK  4 active torsions:
REMARK  status: ('A' for Active; 'I' for Inactive)
REMARK    1  A    between atoms: N_1  and  C_5 
REMARK    2  A    between atoms: C_8  and  N_12 
REMARK    3  A    between atoms: C_13  and  C_16 
REMARK    4  A    between atoms: O_15  and  C_16 
ROOT
HETATM    1  N   UNL     1      -0.041  -1.371  -0.179  1.00  0.00    -0.282 N 
HETATM    2  C   UNL     1      -1.020  -0.629   0.491  1.00  0.00     0.329 A 
HETATM    3  N   UNL     1      -1.053   0.734   0.306  1.00  0.00    -0.299 N 
ATOM      4  HN  UNL     1      -1.741   1.301   0.802  1.00  0.00     0.171 HD
HETATM    5  C   UNL     1       0.846  -0.768  -1.041  1.00  0.00     0.101 A 
HETATM    6  C   UNL     1       0.818   0.547  -1.249  1.00  0.00     0.059 A 
HETATM    7  C   UNL     1      -0.208   1.295  -0.499  1.00  0.00     0.082 A 
HETATM    8  O   UNL     1      -1.835  -1.179   1.230  1.00  0.00    -0.246 OA
ENDROOT
BRANCH   1   9
HETATM    9  C   UNL     1      -0.042  -2.810   0.042  1.00  0.00     0.232 C 
HETATM   10  O   UNL     1       1.179  -3.418  -0.428  1.00  0.00    -0.359 OA
HETATM   11  C   UNL     1       0.865  -4.697  -1.010  1.00  0.00     0.147 C 
HETATM   12  C   UNL     1      -0.627  -4.927  -0.812  1.00  0.00     0.038 C 
HETATM   13  C   UNL     1      -1.171  -3.527  -0.685  1.00  0.00     0.057 C 
BRANCH  11  14
HETATM   14  C   UNL     1       1.293  -4.698  -2.480  1.00  0.00     0.196 C 
BRANCH  14  15
HETATM   15  O   UNL     1       1.060  -5.971  -3.070  1.00  0.00    -0.398 OA
HETATM   16  H   UNL     1       1.425  -5.940  -3.972  1.00  0.00     0.209 HD
ENDBRANCH  14  15
ENDBRANCH  11  14
ENDBRANCH   1   9
BRANCH   7  17
HETATM   17  N   UNL     1      -0.285   2.654  -0.635  1.00  0.00    -0.288 NA
HETATM   18  H   UNL     1      -0.843   3.079   0.100  1.00  0.00     0.125 HD
HETATM   19  H   UNL     1       0.576   3.150  -0.823  1.00  0.00     0.125 HD
ENDBRANCH   7  17
TORSDOF 4
