REMARK  5 active torsions:
REMARK  status: ('A' for Active; 'I' for Inactive)
REMARK    1  A    between atoms: C_2  and  C_3 
REMARK    2  A    between atoms: C_2  and  N_10 
REMARK    3  A    between atoms: C_3  and  N_4 
REMARK       I    between atoms: N_10  and  C_11 
REMARK       I    between atoms: C_11  and  N_13 
REMARK    4  A    between atoms: N_13  and  C_14 
REMARK    5  A    between atoms: C_21  and  N_22 
ROOT
HETATM    1  N   UNL     1       3.064  -0.435   1.461  1.00  0.00    -0.337 N 
HETATM    2  C   UNL     1       4.363  -0.234   1.851  1.00  0.00     0.321 C 
HETATM    3  O   UNL     1       5.218   0.330   1.191  1.00  0.00    -0.247 OA
HETATM    4  N   UNL     1       4.647  -0.690   3.120  1.00  0.00    -0.305 N 
HETATM    5  H   UNL     1       2.713  -1.318   1.803  1.00  0.00     0.164 HD
HETATM    6  H   UNL     1       3.880  -0.683   3.783  1.00  0.00     0.171 HD
ENDROOT
BRANCH   1   7
HETATM    7  C   UNL     1       2.556  -0.064   0.115  1.00  0.00     0.099 C 
HETATM    8  C   UNL     1       1.025  -0.175   0.124  1.00  0.00     0.034 C 
BRANCH   7   9
HETATM    9  C   UNL     1       2.934   1.363  -0.426  1.00  0.00     0.141 C 
BRANCH   9  10
HETATM   10  N   UNL     1       4.342   1.586  -0.732  1.00  0.00    -0.410 N 
HETATM   11  C   UNL     1       4.762   2.959  -0.942  1.00  0.00     0.117 C 
HETATM   12  C   UNL     1       4.516   3.406  -2.377  1.00  0.00     0.019 C 
HETATM   13  C   UNL     1       5.107   2.419  -3.387  1.00  0.00     0.003 C 
HETATM   14  C   UNL     1       4.706   0.978  -3.083  1.00  0.00     0.019 C 
HETATM   15  C   UNL     1       5.004   0.649  -1.629  1.00  0.00     0.117 C 
ENDBRANCH   9  10
ENDBRANCH   7   9
ENDBRANCH   1   7
BRANCH   4  16
HETATM   16  C   UNL     1       5.910  -0.284   3.657  1.00  0.00     0.090 A 
HETATM   17  C   UNL     1       7.084  -0.402   2.910  1.00  0.00     0.121 A 
HETATM   18  N   UNL     1       8.283   0.057   3.299  1.00  0.00    -0.360 N 
HETATM   19  C   UNL     1       8.283   0.672   4.478  1.00  0.00     0.181 A 
ATOM     20  HN  UNL     1       9.126  -0.057   2.736  1.00  0.00     0.166 HD
HETATM   21  N   UNL     1       7.237   0.817   5.311  1.00  0.00    -0.341 N 
HETATM   22  C   UNL     1       6.038   0.327   4.904  1.00  0.00     0.111 A 
ATOM     23  HN  UNL     1       7.341   1.278   6.215  1.00  0.00     0.167 HD
BRANCH  22  24
HETATM   24  N   UNL     1       4.938   0.387   5.800  1.00  0.00    -0.276 NA
HETATM   25  C   UNL     1       5.387   0.606   7.183  1.00  0.00     0.118 C 
HETATM   26  C   UNL     1       3.870   1.318   5.414  1.00  0.00     0.118 C 
ENDBRANCH  22  24
ENDBRANCH   4  16
TORSDOF 5
