REMARK  5 active torsions:
REMARK  status: ('A' for Active; 'I' for Inactive)
REMARK    1  A    between atoms: C_2  and  C_3 
REMARK    2  A    between atoms: C_2  and  N_13 
REMARK       I    between atoms: C_3  and  N_5 
REMARK    3  A    between atoms: N_5  and  C_6 
REMARK    4  A    between atoms: C_6  and  C_7 
REMARK    5  A    between atoms: C_6  and  C_10 
ROOT
HETATM    1  C   UNL     1       2.884   0.455   1.578  1.00  0.00     0.240 C 
HETATM    2  O   UNL     1       3.335  -0.365   2.378  1.00  0.00    -0.271 OA
HETATM    3  N   UNL     1       2.829   1.808   1.835  1.00  0.00    -0.354 N 
HETATM    4  H   UNL     1       2.337   2.428   1.209  1.00  0.00     0.162 HD
ENDROOT
BRANCH   1   5
HETATM    5  C   UNL     1       2.372   0.008   0.212  1.00  0.00     0.178 C 
HETATM    6  C   UNL     1       3.159   0.657  -0.925  1.00  0.00     0.043 C 
BRANCH   5   7
HETATM    7  N   UNL     1       0.928   0.172   0.119  1.00  0.00    -0.338 N 
HETATM    8  C   UNL     1       0.230   1.206  -0.443  1.00  0.00     0.109 A 
HETATM    9  C   UNL     1      -1.094   0.865  -0.293  1.00  0.00     0.106 A 
HETATM   10  N   UNL     1      -1.217  -0.339   0.348  1.00  0.00    -0.361 N 
HETATM   11  C   UNL     1       0.013  -0.734   0.584  1.00  0.00     0.183 A 
ATOM     12  HN  UNL     1      -2.080  -0.825   0.590  1.00  0.00     0.166 HD
ENDBRANCH   5   7
ENDBRANCH   1   5
BRANCH   3  13
HETATM   13  C   UNL     1       3.283   2.366   3.092  1.00  0.00     0.092 C 
BRANCH  13  14
HETATM   14  C   UNL     1       4.254   3.481   2.787  1.00  0.00     0.009 A 
HETATM   15  C   UNL     1       5.586   3.199   2.129  1.00  0.00     0.007 A 
HETATM   16  C   UNL     1       5.537   3.582   3.580  1.00  0.00     0.007 A 
ENDBRANCH  13  14
BRANCH  13  17
HETATM   17  C   UNL     1       2.133   2.860   3.940  1.00  0.00     0.009 A 
HETATM   18  C   UNL     1       1.100   1.875   4.435  1.00  0.00     0.007 A 
HETATM   19  C   UNL     1       0.690   2.967   3.488  1.00  0.00     0.007 A 
ENDBRANCH  13  17
ENDBRANCH   3  13
TORSDOF 5
