REMARK  3 active torsions:
REMARK  status: ('A' for Active; 'I' for Inactive)
REMARK    1  A    between atoms: N_7  and  C_8 
REMARK    2  A    between atoms: C_8  and  C_9 
REMARK       I    between atoms: C_9  and  N_11 
REMARK    3  A    between atoms: N_11  and  C_12 
ROOT
HETATM    1  C   UNL     1       1.503  -4.388   0.768  1.00  0.00     0.236 C 
HETATM    2  O   UNL     1       1.117  -5.061   1.721  1.00  0.00    -0.272 OA
HETATM    3  N   UNL     1       0.650  -3.804  -0.152  1.00  0.00    -0.355 N 
HETATM    4  H   UNL     1       1.040  -3.660  -1.085  1.00  0.00     0.162 HD
ENDROOT
BRANCH   1   5
HETATM    5  C   UNL     1       2.999  -4.126   0.505  1.00  0.00     0.235 C 
BRANCH   5   6
HETATM    6  N   UNL     1       3.642  -5.146  -0.307  1.00  0.00    -0.303 N 
HETATM    7  C   UNL     1       4.774  -5.872   0.049  1.00  0.00     0.018 A 
HETATM    8  C   UNL     1       5.406  -5.793   1.398  1.00  0.00     0.069 C 
HETATM    9  C   UNL     1       5.253  -6.621  -0.955  1.00  0.00     0.080 A 
HETATM   10  S   UNL     1       4.328  -6.443  -2.410  1.00  0.00    -0.039 SA
HETATM   11  C   UNL     1       3.270  -5.258  -1.641  1.00  0.00     0.290 A 
HETATM   12  O   UNL     1       2.393  -4.637  -2.222  1.00  0.00    -0.259 OA
ENDBRANCH   5   6
ENDBRANCH   1   5
BRANCH   3  13
HETATM   13  C   UNL     1      -0.813  -3.896  -0.054  1.00  0.00     0.084 C 
HETATM   14  C   UNL     1      -1.318  -5.156  -0.777  1.00  0.00     0.025 C 
HETATM   15  C   UNL     1      -2.774  -5.490  -0.450  1.00  0.00     0.002 C 
HETATM   16  C   UNL     1      -3.812  -4.823  -1.348  1.00  0.00     0.000 C 
HETATM   17  C   UNL     1      -3.557  -3.366  -1.720  1.00  0.00     0.000 C 
HETATM   18  C   UNL     1      -2.956  -2.522  -0.601  1.00  0.00     0.002 C 
HETATM   19  C   UNL     1      -1.427  -2.584  -0.567  1.00  0.00     0.025 C 
ENDBRANCH   3  13
TORSDOF 3
