REMARK  4 active torsions:
REMARK  status: ('A' for Active; 'I' for Inactive)
REMARK    1  A    between atoms: C_2  and  S_3 
REMARK    2  A    between atoms: S_3  and  C_5 
REMARK    3  A    between atoms: C_9  and  N_11 
REMARK       I    between atoms: N_11  and  C_12 
REMARK       I    between atoms: C_12  and  N_14 
REMARK    4  A    between atoms: N_14  and  C_15 
ROOT
HETATM    1  N   UNL     1       5.414  -2.513  -3.079  1.00  0.00    -0.338 N 
HETATM    2  C   UNL     1       4.909  -2.413  -4.338  1.00  0.00     0.322 C 
HETATM    3  O   UNL     1       3.968  -1.685  -4.638  1.00  0.00    -0.247 OA
HETATM    4  N   UNL     1       5.559  -3.132  -5.302  1.00  0.00    -0.295 N 
HETATM    5  H   UNL     1       6.208  -3.144  -2.988  1.00  0.00     0.164 HD
HETATM    6  H   UNL     1       5.236  -2.935  -6.236  1.00  0.00     0.172 HD
ENDROOT
BRANCH   1   7
HETATM    7  C   UNL     1       5.039  -1.679  -1.966  1.00  0.00     0.087 C 
HETATM    8  C   UNL     1       5.733  -0.317  -2.032  1.00  0.00     0.025 C 
HETATM    9  C   UNL     1       5.331   0.558  -0.847  1.00  0.00     0.003 C 
HETATM   10  C   UNL     1       5.492  -0.141   0.509  1.00  0.00     0.017 C 
HETATM   11  C   UNL     1       4.951  -1.583   0.561  1.00  0.00     0.081 C 
HETATM   12  C   UNL     1       5.423  -2.371  -0.657  1.00  0.00     0.043 C 
BRANCH  11  13
HETATM   13  S   UNL     1       3.115  -1.579   0.741  1.00  0.00     0.019 S 
HETATM   14  O   UNL     1       2.815  -1.057   2.116  1.00  0.00    -0.258 OA
BRANCH  13  15
HETATM   15  C   UNL     1       2.861  -3.385   0.777  1.00  0.00     0.104 C 
HETATM   16  C   UNL     1       1.434  -3.737   1.152  1.00  0.00     0.018 C 
ENDBRANCH  13  15
ENDBRANCH  11  13
ENDBRANCH   1   7
BRANCH   4  17
HETATM   17  C   UNL     1       6.636  -4.009  -5.131  1.00  0.00     0.109 A 
HETATM   18  C   UNL     1       7.350  -4.416  -6.248  1.00  0.00     0.055 A 
HETATM   19  C   UNL     1       8.464  -5.244  -6.069  1.00  0.00    -0.057 A 
HETATM   20  C   UNL     1       9.325  -5.645  -7.230  1.00  0.00     0.048 C 
HETATM   21  C   UNL     1       8.790  -5.672  -4.781  1.00  0.00     0.031 A 
HETATM   22  C   UNL     1       8.013  -5.245  -3.715  1.00  0.00     0.007 A 
HETATM   23  C   UNL     1       8.273  -5.696  -2.311  1.00  0.00     0.068 C 
HETATM   24  N   UNL     1       6.966  -4.408  -3.881  1.00  0.00    -0.346 N 
ATOM     25  HN  UNL     1       6.432  -4.081  -3.076  1.00  0.00     0.167 HD
ENDBRANCH   4  17
TORSDOF 4
