REMARK  6 active torsions:
REMARK  status: ('A' for Active; 'I' for Inactive)
REMARK    1  A    between atoms: C_5  and  C_18 
REMARK    2  A    between atoms: C_7  and  N_8 
REMARK       I    between atoms: N_8  and  C_9 
REMARK       I    between atoms: C_9  and  N_11 
REMARK    3  A    between atoms: N_11  and  C_12 
REMARK    4  A    between atoms: C_12  and  C_13 
REMARK    5  A    between atoms: C_13  and  C_14 
REMARK    6  A    between atoms: C_14  and  O_15 
ROOT
HETATM    1  N   UNL     1       3.038  -2.468  -0.145  1.00  0.00    -0.293 N 
HETATM    2  C   UNL     1       3.991  -3.519  -0.086  1.00  0.00     0.321 C 
HETATM    3  O   UNL     1       5.192  -3.324   0.001  1.00  0.00    -0.247 OA
HETATM    4  N   UNL     1       3.394  -4.740  -0.150  1.00  0.00    -0.342 N 
HETATM    5  H   UNL     1       2.062  -2.694  -0.246  1.00  0.00     0.172 HD
HETATM    6  H   UNL     1       2.399  -4.854  -0.246  1.00  0.00     0.164 HD
ENDROOT
BRANCH   1   7
HETATM    7  C   UNL     1       3.405  -1.125  -0.062  1.00  0.00     0.127 A 
HETATM    8  N   UNL     1       2.585  -0.018  -0.121  1.00  0.00    -0.281 N 
HETATM    9  C   UNL     1       1.155   0.001  -0.317  1.00  0.00     0.179 C 
HETATM   10  N   UNL     1       3.247   1.152   0.027  1.00  0.00    -0.301 N 
HETATM   11  C   UNL     1       4.521   0.776   0.159  1.00  0.00     0.034 A 
ATOM     12  HN  UNL     1       2.864   2.097   0.036  1.00  0.00     0.187 HD
HETATM   13  C   UNL     1       4.671  -0.617   0.108  1.00  0.00     0.077 A 
BRANCH  11  14
HETATM   14  C   UNL     1       5.723   1.678   0.370  1.00  0.00     0.037 C 
HETATM   15  C   UNL     1       5.611   2.623   1.601  1.00  0.00     0.011 C 
HETATM   16  C   UNL     1       6.379   3.665   0.766  1.00  0.00     0.001 C 
HETATM   17  C   UNL     1       5.774   2.978  -0.475  1.00  0.00     0.011 C 
ENDBRANCH  11  14
ENDBRANCH   1   7
BRANCH   4  18
HETATM   18  C   UNL     1       4.212  -5.930  -0.124  1.00  0.00     0.136 C 
BRANCH  18  19
HETATM   19  C   UNL     1       4.115  -6.678  -1.434  1.00  0.00    -0.003 A 
HETATM   20  C   UNL     1       2.969  -7.647  -1.664  1.00  0.00     0.014 A 
HETATM   21  C   UNL     1       4.334  -8.178  -1.325  1.00  0.00     0.014 A 
BRANCH  19  22
HETATM   22  C   UNL     1       4.646  -5.900  -2.626  1.00  0.00     0.175 C 
BRANCH  22  23
HETATM   23  O   UNL     1       4.501  -6.618  -3.842  1.00  0.00    -0.400 OA
HETATM   24  H   UNL     1       5.159  -7.333  -3.834  1.00  0.00     0.209 HD
ENDBRANCH  22  23
ENDBRANCH  19  22
ENDBRANCH  18  19
ENDBRANCH   4  18
TORSDOF 6
