REMARK  1 active torsions:
REMARK  status: ('A' for Active; 'I' for Inactive)
REMARK    1  A    between atoms: C_8  and  C_11 
ROOT
HETATM    1  C   UNL     2       1.384   0.077  -0.637  1.00  0.00     0.091 C 
HETATM    2  C   UNL     2       2.863  -0.101  -0.534  1.00  0.00     0.100 A 
HETATM    3  N   UNL     2       3.476  -1.298  -0.580  1.00  0.00    -0.248 N 
ATOM      4  HN  UNL     2       3.036  -2.213  -0.676  1.00  0.00     0.196 HD
HETATM    5  O   UNL     2       4.744  -1.043  -0.477  1.00  0.00    -0.222 OA
HETATM    6  C   UNL     2       4.926   0.250  -0.367  1.00  0.00     0.155 A 
HETATM    7  N   UNL     2       3.751   0.907  -0.400  1.00  0.00    -0.327 N 
ATOM      8  HN  UNL     2       3.576   1.910  -0.339  1.00  0.00     0.169 HD
ENDROOT
BRANCH   6   9
HETATM    9  C   UNL     2       6.281   0.879  -0.259  1.00  0.00     0.119 C 
HETATM   10  C   UNL     2       7.100   0.527   0.965  1.00  0.00     0.284 C 
HETATM   11  N   UNL     2       7.534   1.918   1.140  1.00  0.00     0.085 N 
HETATM   12  C   UNL     2       6.437   2.305   0.239  1.00  0.00     0.284 C 
HETATM   13  H   UNL     2       8.430   2.029   0.605  1.00  0.00     0.315 HD
ENDBRANCH   6   9
TORSDOF 1
