REMARK  4 active torsions:
REMARK  status: ('A' for Active; 'I' for Inactive)
REMARK    1  A    between atoms: C_2  and  C_3 
REMARK       I    between atoms: C_2  and  N_11 
REMARK    2  A    between atoms: C_3  and  O_4 
REMARK    3  A    between atoms: O_4  and  C_5 
REMARK    4  A    between atoms: N_11  and  C_12 
ROOT
HETATM    1  O   UNL     1       2.713   1.363  -0.531  1.00  0.00    -0.271 OA
HETATM    2  C   UNL     1       2.049   0.621   0.190  1.00  0.00     0.246 C 
HETATM    3  N   UNL     1       0.674   0.585   0.293  1.00  0.00    -0.310 N 
HETATM    4  H   UNL     1       0.281  -0.103   0.921  1.00  0.00     0.170 HD
ENDROOT
BRANCH   2   5
HETATM    5  C   UNL     1       2.781  -0.326   1.150  1.00  0.00     0.271 C 
BRANCH   5   6
HETATM    6  O   UNL     1       2.116  -1.530   1.512  1.00  0.00    -0.377 OA
BRANCH   6   7
HETATM    7  C   UNL     1       2.863  -2.320   2.464  1.00  0.00     0.122 C 
HETATM    8  C   UNL     1       4.247  -2.767   1.961  1.00  0.00     0.032 C 
HETATM    9  C   UNL     1       4.139  -3.663   0.729  1.00  0.00     0.002 C 
HETATM   10  C   UNL     1       3.272  -4.887   1.011  1.00  0.00     0.000 C 
HETATM   11  C   UNL     1       1.911  -4.508   1.593  1.00  0.00     0.002 C 
HETATM   12  C   UNL     1       2.038  -3.571   2.797  1.00  0.00     0.032 C 
ENDBRANCH   6   7
ENDBRANCH   5   6
ENDBRANCH   2   5
BRANCH   3  13
HETATM   13  C   UNL     1      -0.195   1.409  -0.447  1.00  0.00     0.123 A 
HETATM   14  C   UNL     1      -1.572   1.310  -0.252  1.00  0.00     0.136 A 
HETATM   15  N   UNL     1      -2.489   2.051  -0.928  1.00  0.00    -0.371 N 
HETATM   16  C   UNL     1      -1.973   2.915  -1.829  1.00  0.00     0.104 A 
ATOM     17  HN  UNL     1      -3.492   1.961  -0.767  1.00  0.00     0.164 HD
HETATM   18  C   UNL     1      -0.612   3.033  -2.031  1.00  0.00     0.106 A 
HETATM   19  N   UNL     1       0.288   2.291  -1.347  1.00  0.00    -0.350 N 
ATOM     20  HN  UNL     1       1.290   2.394  -1.505  1.00  0.00     0.166 HD
ENDBRANCH   3  13
TORSDOF 4
