REMARK  3 active torsions:
REMARK  status: ('A' for Active; 'I' for Inactive)
REMARK    1  A    between atoms: C_2  and  C_3 
REMARK       I    between atoms: C_2  and  N_10 
REMARK    2  A    between atoms: C_3  and  N_4 
REMARK    3  A    between atoms: N_10  and  C_11 
ROOT
HETATM    1  O   UNL     1       2.593  -1.484   0.133  1.00  0.00    -0.272 OA
HETATM    2  C   UNL     1       2.085  -0.452   0.565  1.00  0.00     0.237 C 
HETATM    3  N   UNL     1       2.818   0.635   1.005  1.00  0.00    -0.353 N 
HETATM    4  H   UNL     1       2.340   1.447   1.376  1.00  0.00     0.163 HD
ENDROOT
BRANCH   3   5
HETATM    5  C   UNL     1       4.276   0.733   0.870  1.00  0.00     0.119 C 
HETATM    6  C   UNL     1       5.038  -0.356   1.642  1.00  0.00     0.057 C 
HETATM    7  C   UNL     1       5.888  -1.082   0.598  1.00  0.00     0.275 C 
HETATM    8  N   UNL     1       6.071  -0.084  -0.454  1.00  0.00     0.095 N 
HETATM    9  C   UNL     1       6.451  -0.650  -1.749  1.00  0.00     0.273 C 
HETATM   10  C   UNL     1       4.762   0.571  -0.577  1.00  0.00     0.245 C 
HETATM   11  C   UNL     1       6.551   0.466  -2.805  1.00  0.00     0.030 C 
HETATM   12  C   UNL     1       5.339   1.411  -2.817  1.00  0.00     0.004 C 
HETATM   13  C   UNL     1       4.942   1.840  -1.400  1.00  0.00     0.038 C 
ENDBRANCH   3   5
BRANCH   2  14
HETATM   14  C   UNL     1       0.583  -0.289   0.603  1.00  0.00     0.249 C 
BRANCH  14  15
HETATM   15  N   UNL     1       0.042  -0.128  -0.722  1.00  0.00    -0.264 N 
HETATM   16  C   UNL     1       0.215  -0.893  -1.829  1.00  0.00     0.213 A 
HETATM   17  N   UNL     1      -0.511  -0.386  -2.802  1.00  0.00    -0.281 N 
HETATM   18  N   UNL     1      -1.147   0.706  -2.265  1.00  0.00    -0.008 NA
ATOM     19  HN  UNL     1      -0.586  -0.733  -3.758  1.00  0.00     0.184 HD
HETATM   20  N   UNL     1      -0.816   0.869  -0.990  1.00  0.00    -0.005 NA
ENDBRANCH  14  15
ENDBRANCH   2  14
TORSDOF 3
