REMARK  3 active torsions:
REMARK  status: ('A' for Active; 'I' for Inactive)
REMARK    1  A    between atoms: C_2  and  C_3 
REMARK    2  A    between atoms: C_7  and  N_8 
REMARK       I    between atoms: N_8  and  C_9 
REMARK       I    between atoms: C_9  and  N_11 
REMARK    3  A    between atoms: N_11  and  C_12 
ROOT
HETATM    1  C   UNL     1       2.849  -1.417   0.109  1.00  0.00     0.035 C 
HETATM    2  N   UNL     1       4.041  -1.974   0.473  1.00  0.00    -0.303 N 
HETATM    3  N   UNL     1       4.070  -3.309   0.353  1.00  0.00    -0.285 N 
ATOM      4  HN  UNL     1       4.867  -3.933   0.475  1.00  0.00     0.188 HD
HETATM    5  C   UNL     1       2.816  -3.632   0.038  1.00  0.00     0.131 C 
HETATM    6  C   UNL     1       2.028  -2.479  -0.234  1.00  0.00     0.007 C 
HETATM    7  C   UNL     1       0.648  -2.396  -0.776  1.00  0.00     0.054 C 
HETATM    8  H   UNL     1       4.876  -1.503   0.804  1.00  0.00     0.186 HD
ENDROOT
BRANCH   5   9
HETATM    9  N   UNL     1       2.484  -4.967  -0.009  1.00  0.00    -0.293 N 
HETATM   10  C   UNL     1       1.290  -5.440   0.488  1.00  0.00     0.322 C 
HETATM   11  O   UNL     1       0.390  -4.762   0.977  1.00  0.00    -0.247 OA
HETATM   12  N   UNL     1       1.217  -6.819   0.402  1.00  0.00    -0.338 N 
HETATM   13  H   UNL     1       1.863  -7.284  -0.217  1.00  0.00     0.164 HD
HETATM   14  H   UNL     1       3.290  -5.554   0.144  1.00  0.00     0.172 HD
BRANCH  12  15
HETATM   15  C   UNL     1       0.064  -7.537   0.854  1.00  0.00     0.086 A 
HETATM   16  C   UNL     1       0.117  -8.302   2.146  1.00  0.00     0.027 A 
HETATM   17  C   UNL     1       0.024  -9.039   0.844  1.00  0.00     0.027 A 
ENDBRANCH  12  15
ENDBRANCH   5   9
BRANCH   1  18
HETATM   18  C   UNL     1       2.611   0.051   0.139  1.00  0.00     0.055 C 
HETATM   19  C   UNL     1       3.031   0.717  -1.160  1.00  0.00     0.011 C 
ENDBRANCH   1  18
TORSDOF 3
