REMARK  4 active torsions:
REMARK  status: ('A' for Active; 'I' for Inactive)
REMARK    1  A    between atoms: C_2  and  C_3 
REMARK    2  A    between atoms: C_2  and  C_18 
REMARK    3  A    between atoms: C_3  and  N_4 
REMARK       I    between atoms: N_4  and  C_5 
REMARK       I    between atoms: C_5  and  N_7 
REMARK    4  A    between atoms: N_7  and  C_8 
ROOT
HETATM    1  N   UNL     1       2.185   1.075  -2.450  1.00  0.00    -0.342 N 
HETATM    2  C   UNL     1       2.631   1.932  -3.419  1.00  0.00     0.316 C 
HETATM    3  O   UNL     1       3.323   2.916  -3.195  1.00  0.00    -0.247 OA
HETATM    4  N   UNL     1       2.219   1.562  -4.670  1.00  0.00    -0.338 N 
HETATM    5  H   UNL     1       1.831   0.172  -2.724  1.00  0.00     0.164 HD
HETATM    6  H   UNL     1       1.710   0.697  -4.757  1.00  0.00     0.164 HD
ENDROOT
BRANCH   1   7
HETATM    7  C   UNL     1       2.545   1.254  -1.054  1.00  0.00     0.133 C 
BRANCH   7   8
HETATM    8  C   UNL     1       3.831   0.510  -0.625  1.00  0.00     0.032 C 
HETATM    9  C   UNL     1       5.078   1.011  -1.364  1.00  0.00     0.017 C 
BRANCH   8  10
HETATM   10  C   UNL     1       3.655  -1.001  -0.683  1.00  0.00    -0.050 A 
HETATM   11  C   UNL     1       3.095  -1.676   0.409  1.00  0.00     0.024 A 
HETATM   12  C   UNL     1       2.942  -3.054   0.342  1.00  0.00     0.088 A 
HETATM   13  N   UNL     1       3.295  -3.798  -0.726  1.00  0.00    -0.375 N 
HETATM   14  C   UNL     1       3.833  -3.135  -1.769  1.00  0.00     0.088 A 
ATOM     15  HN  UNL     1       3.162  -4.809  -0.744  1.00  0.00     0.164 HD
HETATM   16  C   UNL     1       4.026  -1.762  -1.796  1.00  0.00     0.024 A 
ENDBRANCH   8  10
ENDBRANCH   7   8
ENDBRANCH   1   7
BRANCH   4  17
HETATM   17  C   UNL     1       2.746   2.205  -5.870  1.00  0.00     0.091 C 
HETATM   18  C   UNL     1       1.763   2.121  -7.033  1.00  0.00     0.051 C 
HETATM   19  C   UNL     1       1.732   0.734  -7.655  1.00  0.00     0.171 C 
HETATM   20  O   UNL     1       3.032   0.250  -7.984  1.00  0.00    -0.380 OA
HETATM   21  C   UNL     1       3.981   0.224  -6.907  1.00  0.00     0.062 C 
HETATM   22  C   UNL     1       3.641  -0.874  -5.873  1.00  0.00     0.038 C 
HETATM   23  C   UNL     1       5.333  -0.229  -7.516  1.00  0.00     0.038 C 
HETATM   24  C   UNL     1       4.101   1.626  -6.290  1.00  0.00     0.063 C 
HETATM   25  C   UNL     1       4.478  -2.079  -6.275  1.00  0.00     0.003 C 
HETATM   26  C   UNL     1       5.781  -1.441  -6.708  1.00  0.00     0.003 C 
ENDBRANCH   4  17
TORSDOF 4
