REMARK  8 active torsions:
REMARK  status: ('A' for Active; 'I' for Inactive)
REMARK    1  A    between atoms: C_2  and  C_3 
REMARK    2  A    between atoms: C_3  and  C_4 
REMARK    3  A    between atoms: C_4  and  N_5 
REMARK       I    between atoms: N_5  and  C_6 
REMARK    4  A    between atoms: N_5  and  C_13 
REMARK    5  A    between atoms: C_6  and  C_8 
REMARK    6  A    between atoms: C_14  and  N_15 
REMARK    7  A    between atoms: N_16  and  C_17 
REMARK    8  A    between atoms: C_17  and  C_18 
ROOT
HETATM    1  C   UNL     1       6.388   2.395  -2.027  1.00  0.00     0.144 C 
HETATM    2  C   UNL     1       7.116   1.529  -2.773  1.00  0.00     0.117 C 
HETATM    3  N   UNL     1       8.501   1.665  -2.823  1.00  0.00    -0.288 N 
HETATM    4  C   UNL     1       9.169   2.742  -2.243  1.00  0.00     0.330 C 
HETATM    5  O   UNL     1      10.389   2.890  -2.266  1.00  0.00    -0.246 OA
HETATM    6  N   UNL     1       8.397   3.657  -1.594  1.00  0.00    -0.273 N 
HETATM    7  C   UNL     1       7.065   3.538  -1.349  1.00  0.00     0.279 C 
HETATM    8  O   UNL     1       6.479   4.310  -0.597  1.00  0.00    -0.265 OA
HETATM    9  H   UNL     1       8.878   4.417  -1.139  1.00  0.00     0.173 HD
ENDROOT
BRANCH   1  10
HETATM   10  N   UNL     1       5.017   2.238  -1.857  1.00  0.00    -0.308 N 
HETATM   11  C   UNL     1       4.077   2.982  -2.571  1.00  0.00     0.253 C 
HETATM   12  O   UNL     1       2.867   2.850  -2.360  1.00  0.00    -0.270 OA
BRANCH  10  13
HETATM   13  C   UNL     1       4.578   1.383  -0.726  1.00  0.00     0.132 C 
BRANCH  13  14
HETATM   14  C   UNL     1       4.613   2.095   0.636  1.00  0.00     0.020 C 
BRANCH  14  15
HETATM   15  C   UNL     1       4.226   1.191   1.813  1.00  0.00    -0.003 C 
HETATM   16  C   UNL     1       4.304   1.955   3.132  1.00  0.00     0.005 C 
ENDBRANCH  14  15
ENDBRANCH  13  14
ENDBRANCH  10  13
BRANCH  11  17
HETATM   17  C   UNL     1       4.545   3.951  -3.713  1.00  0.00     0.213 C 
HETATM   18  C   UNL     1       3.930   3.540  -5.055  1.00  0.00     0.044 C 
HETATM   19  C   UNL     1       5.034   3.700  -6.077  1.00  0.00     0.029 C 
HETATM   20  C   UNL     1       6.100   4.475  -5.349  1.00  0.00     0.168 C 
HETATM   21  O   UNL     1       5.927   4.184  -3.964  1.00  0.00    -0.376 OA
ENDBRANCH  11  17
ENDBRANCH   1  10
BRANCH   2  22
HETATM   22  N   UNL     1       6.463   0.527  -3.491  1.00  0.00    -0.286 NA
HETATM   23  H   UNL     1       5.454   0.560  -3.347  1.00  0.00     0.125 HD
HETATM   24  H   UNL     1       6.819  -0.397  -3.271  1.00  0.00     0.125 HD
ENDBRANCH   2  22
BRANCH   3  25
HETATM   25  C   UNL     1       9.340   0.656  -3.477  1.00  0.00     0.135 C 
BRANCH  25  26
HETATM   26  C   UNL     1       9.792   1.009  -4.897  1.00  0.00     0.016 C 
HETATM   27  C   UNL     1       8.670   0.998  -5.921  1.00  0.00     0.006 C 
ENDBRANCH  25  26
ENDBRANCH   3  25
TORSDOF 8
