REMARK  4 active torsions:
REMARK  status: ('A' for Active; 'I' for Inactive)
REMARK    1  A    between atoms: N_2  and  C_4 
REMARK    2  A    between atoms: C_7  and  N_8 
REMARK       I    between atoms: N_8  and  C_9 
REMARK       I    between atoms: C_9  and  N_11 
REMARK    3  A    between atoms: N_11  and  C_12 
REMARK    4  A    between atoms: C_15  and  O_16 
ROOT
HETATM    1  N   UNL     1       4.754  -2.465  -4.576  1.00  0.00    -0.308 N 
HETATM    2  C   UNL     1       4.055  -3.607  -4.917  1.00  0.00     0.321 C 
HETATM    3  O   UNL     1       2.878  -3.795  -4.614  1.00  0.00    -0.247 OA
HETATM    4  N   UNL     1       4.796  -4.539  -5.605  1.00  0.00    -0.338 N 
HETATM    5  H   UNL     1       5.391  -2.126  -5.280  1.00  0.00     0.170 HD
HETATM    6  H   UNL     1       5.591  -4.196  -6.129  1.00  0.00     0.164 HD
ENDROOT
BRANCH   1   7
HETATM    7  C   UNL     1       4.145  -1.499  -3.735  1.00  0.00     0.051 A 
HETATM    8  C   UNL     1       4.211  -0.151  -4.053  1.00  0.00     0.034 A 
HETATM    9  C   UNL     1       3.467   0.763  -3.295  1.00  0.00     0.044 A 
HETATM   10  C   UNL     1       2.701   0.329  -2.208  1.00  0.00     0.081 A 
HETATM   11  N   UNL     1       2.707  -0.968  -1.841  1.00  0.00    -0.354 N 
HETATM   12  C   UNL     1       3.411  -1.845  -2.603  1.00  0.00     0.119 A 
ATOM     13  HN  UNL     1       2.198  -1.282  -1.015  1.00  0.00     0.166 HD
BRANCH  10  14
HETATM   14  N   UNL     1       1.874   1.252  -1.535  1.00  0.00    -0.278 NA
HETATM   15  C   UNL     1       0.798   0.607  -0.780  1.00  0.00     0.118 C 
HETATM   16  C   UNL     1       2.638   2.248  -0.791  1.00  0.00     0.118 C 
ENDBRANCH  10  14
ENDBRANCH   1   7
BRANCH   4  17
HETATM   17  C   UNL     1       4.154  -5.778  -6.064  1.00  0.00     0.086 C 
HETATM   18  C   UNL     1       3.563  -6.601  -4.901  1.00  0.00     0.028 C 
HETATM   19  C   UNL     1       4.667  -7.103  -3.974  1.00  0.00     0.034 C 
HETATM   20  C   UNL     1       5.655  -7.999  -4.716  1.00  0.00     0.118 C 
HETATM   21  C   UNL     1       6.181  -7.365  -6.006  1.00  0.00     0.034 C 
HETATM   22  C   UNL     1       5.106  -6.684  -6.862  1.00  0.00     0.028 C 
BRANCH  20  23
HETATM   23  O   UNL     1       5.066  -9.263  -5.021  1.00  0.00    -0.396 OA
HETATM   24  H   UNL     1       4.103  -9.166  -5.094  1.00  0.00     0.210 HD
ENDBRANCH  20  23
ENDBRANCH   4  17
TORSDOF 4
