REMARK  4 active torsions:
REMARK  status: ('A' for Active; 'I' for Inactive)
REMARK       I    between atoms: C_2  and  N_3 
REMARK       I    between atoms: C_2  and  N_13 
REMARK    1  A    between atoms: N_3  and  C_4 
REMARK    2  A    between atoms: C_4  and  C_5 
REMARK    3  A    between atoms: C_5  and  N_6 
REMARK    4  A    between atoms: N_13  and  C_14 
ROOT
HETATM    1  O   UNL     1       1.042   0.059   0.241  1.00  0.00    -0.247 OA
HETATM    2  C   UNL     1       2.265   0.054   0.190  1.00  0.00     0.320 C 
HETATM    3  N   UNL     1       2.980  -1.117   0.058  1.00  0.00    -0.341 N 
HETATM    4  N   UNL     1       3.087   1.151   0.274  1.00  0.00    -0.308 N 
HETATM    5  H   UNL     1       3.923  -1.059  -0.296  1.00  0.00     0.164 HD
HETATM    6  H   UNL     1       4.016   0.977   0.627  1.00  0.00     0.170 HD
ENDROOT
BRANCH   3   7
HETATM    7  C   UNL     1       2.272  -2.378  -0.095  1.00  0.00     0.145 C 
BRANCH   7   8
HETATM    8  C   UNL     1       1.477  -2.499  -1.406  1.00  0.00     0.156 C 
BRANCH   8   9
HETATM    9  N   UNL     1       2.291  -2.408  -2.605  1.00  0.00    -0.267 N 
HETATM   10  C   UNL     1       3.299  -3.273  -2.928  1.00  0.00     0.245 A 
HETATM   11  O   UNL     1       3.750  -4.164  -2.222  1.00  0.00    -0.271 OA
HETATM   12  C   UNL     1       3.771  -2.968  -4.339  1.00  0.00     0.227 A 
HETATM   13  N   UNL     1       2.892  -1.890  -4.683  1.00  0.00    -0.334 N 
HETATM   14  C   UNL     1       1.985  -1.625  -3.678  1.00  0.00     0.325 A 
HETATM   15  H   UNL     1       2.780  -1.476  -5.599  1.00  0.00     0.164 HD
HETATM   16  O   UNL     1       1.061  -0.841  -3.804  1.00  0.00    -0.247 OA
ENDBRANCH   8   9
ENDBRANCH   7   8
ENDBRANCH   3   7
BRANCH   4  17
HETATM   17  C   UNL     1       2.641   2.491   0.249  1.00  0.00     0.051 A 
HETATM   18  C   UNL     1       1.411   2.877  -0.281  1.00  0.00     0.032 A 
HETATM   19  C   UNL     1       1.035   4.218  -0.263  1.00  0.00     0.019 A 
HETATM   20  C   UNL     1       1.913   5.140   0.280  1.00  0.00     0.088 A 
HETATM   21  N   UNL     1       3.125   4.815   0.781  1.00  0.00    -0.373 N 
HETATM   22  C   UNL     1       3.458   3.501   0.749  1.00  0.00     0.117 A 
ATOM     23  HN  UNL     1       3.755   5.520   1.163  1.00  0.00     0.164 HD
ENDBRANCH   4  17
TORSDOF 4
