REMARK  4 active torsions:
REMARK  status: ('A' for Active; 'I' for Inactive)
REMARK    1  A    between atoms: C_8  and  C_9 
REMARK    2  A    between atoms: C_9  and  C_10 
REMARK    3  A    between atoms: C_10  and  N_11 
REMARK    4  A    between atoms: N_11  and  C_12 
ROOT
HETATM    1  C   UNL     1       2.654  -2.341  -0.172  1.00  0.00     0.069 C 
ENDROOT
BRANCH   1   2
HETATM    2  C   UNL     1       3.255  -3.093  -1.342  1.00  0.00    -0.048 A 
HETATM    3  C   UNL     1       3.607  -2.481  -2.560  1.00  0.00    -0.040 A 
HETATM    4  C   UNL     1       3.403  -1.026  -2.844  1.00  0.00     0.050 C 
HETATM    5  C   UNL     1       4.178  -3.290  -3.546  1.00  0.00     0.094 A 
HETATM    6  N   UNL     1       4.415  -4.615  -3.418  1.00  0.00    -0.375 N 
HETATM    7  C   UNL     1       4.047  -5.176  -2.252  1.00  0.00     0.088 A 
ATOM      8  HN  UNL     1       4.849  -5.159  -4.164  1.00  0.00     0.164 HD
HETATM    9  C   UNL     1       3.477  -4.470  -1.205  1.00  0.00     0.024 A 
ENDBRANCH   1   2
BRANCH   1  10
HETATM   10  C   UNL     1       1.120  -2.213  -0.193  1.00  0.00     0.274 C 
BRANCH  10  11
HETATM   11  N   UNL     1       0.422  -3.501  -0.149  1.00  0.00     0.089 N 
HETATM   12  H   UNL     1       0.724  -4.036   0.664  1.00  0.00     0.316 HD
BRANCH  11  13
HETATM   13  C   UNL     1      -1.050  -3.389  -0.157  1.00  0.00     0.229 C 
HETATM   14  C   UNL     1      -1.660  -4.805  -0.169  1.00  0.00     0.037 C 
HETATM   15  C   UNL     1      -1.361  -5.594  -1.446  1.00  0.00     0.012 C 
HETATM   16  C   UNL     1      -1.886  -4.931  -2.716  1.00  0.00     0.074 C 
HETATM   17  S   UNL     1      -1.280  -3.239  -2.964  1.00  0.00    -0.167 SA
HETATM   18  C   UNL     1      -1.658  -2.567  -1.314  1.00  0.00     0.109 C 
ENDBRANCH  11  13
ENDBRANCH  10  11
ENDBRANCH   1  10
TORSDOF 4
