REMARK  5 active torsions:
REMARK  status: ('A' for Active; 'I' for Inactive)
REMARK    1  A    between atoms: N_6  and  C_7 
REMARK    2  A    between atoms: C_7  and  C_8 
REMARK    3  A    between atoms: C_8  and  N_9 
REMARK    4  A    between atoms: N_9  and  C_10 
REMARK    5  A    between atoms: C_10  and  C_11 
REMARK       I    between atoms: C_11  and  N_13 
ROOT
HETATM    1  N   UNL     1       6.438  -4.039   0.040  1.00  0.00     0.093 N 
HETATM    2  H   UNL     1       7.069  -3.952   0.845  1.00  0.00     0.316 HD
ENDROOT
BRANCH   1   3
HETATM    3  C   UNL     1       5.332  -3.078   0.155  1.00  0.00     0.291 C 
BRANCH   3   4
HETATM    4  C   UNL     1       4.416  -3.199   1.382  1.00  0.00     0.178 C 
BRANCH   4   5
HETATM    5  N   UNL     1       5.127  -3.013   2.630  1.00  0.00    -0.302 N 
HETATM    6  N   UNL     1       5.693  -4.067   3.245  1.00  0.00    -0.310 N 
HETATM    7  C   UNL     1       6.301  -3.523   4.301  1.00  0.00     0.115 A 
ATOM      8  HN  UNL     1       5.664  -5.049   2.970  1.00  0.00     0.186 HD
HETATM    9  C   UNL     1       6.091  -2.130   4.389  1.00  0.00    -0.028 A 
HETATM   10  C   UNL     1       6.585  -1.192   5.420  1.00  0.00     0.051 C 
HETATM   11  C   UNL     1       5.316  -1.835   3.288  1.00  0.00     0.118 A 
ENDBRANCH   4   5
ENDBRANCH   3   4
ENDBRANCH   1   3
BRANCH   1  12
HETATM   12  C   UNL     1       5.941  -5.423   0.040  1.00  0.00     0.372 C 
BRANCH  12  13
HETATM   13  C   UNL     1       7.075  -6.453  -0.084  1.00  0.00     0.247 C 
HETATM   14  O   UNL     1       8.220  -6.237   0.321  1.00  0.00    -0.271 OA
HETATM   15  N   UNL     1       6.696  -7.669  -0.617  1.00  0.00    -0.351 N 
HETATM   16  C   UNL     1       5.375  -8.021  -1.113  1.00  0.00     0.126 C 
HETATM   17  C   UNL     1       7.612  -8.785  -0.728  1.00  0.00     0.126 C 
HETATM   18  C   UNL     1       5.513  -9.419  -1.696  1.00  0.00     0.021 C 
HETATM   19  C   UNL     1       7.017  -9.619  -1.850  1.00  0.00     0.021 C 
ENDBRANCH  12  13
ENDBRANCH   1  12
TORSDOF 5
