REMARK  3 active torsions:
REMARK  status: ('A' for Active; 'I' for Inactive)
REMARK    1  A    between atoms: C_9  and  N_10 
REMARK    2  A    between atoms: N_10  and  C_11 
REMARK    3  A    between atoms: C_11  and  C_12 
ROOT
HETATM    1  N   UNL     1       4.883  -1.666  -4.109  1.00  0.00    -0.191 NA
HETATM    2  C   UNL     1       3.770  -1.885  -3.854  1.00  0.00     0.102 C 
HETATM    3  C   UNL     1       2.385  -2.091  -3.564  1.00  0.00     0.082 A 
HETATM    4  C   UNL     1       1.457  -1.970  -4.606  1.00  0.00     0.027 A 
HETATM    5  C   UNL     1       0.103  -2.137  -4.348  1.00  0.00     0.019 A 
HETATM    6  C   UNL     1      -0.268  -2.393  -3.044  1.00  0.00     0.089 A 
HETATM    7  N   UNL     1       0.612  -2.506  -2.027  1.00  0.00    -0.356 N 
ATOM      8  HN  UNL     1       0.279  -2.689  -1.080  1.00  0.00     0.166 HD
HETATM    9  C   UNL     1       1.932  -2.376  -2.267  1.00  0.00     0.101 A 
ENDROOT
BRANCH   9  10
HETATM   10  N   UNL     1       2.838  -2.645  -1.224  1.00  0.00    -0.275 NA
HETATM   11  H   UNL     1       3.601  -1.971  -1.261  1.00  0.00     0.129 HD
BRANCH  10  12
HETATM   12  C   UNL     1       2.310  -2.691   0.154  1.00  0.00     0.127 C 
BRANCH  12  13
HETATM   13  C   UNL     1       1.347  -3.837   0.530  1.00  0.00     0.163 C 
HETATM   14  C   UNL     1       1.899  -5.293   0.477  1.00  0.00     0.306 C 
HETATM   15  N   UNL     1       2.538  -5.833   1.706  1.00  0.00     0.097 N 
HETATM   16  C   UNL     1       2.588  -7.309   1.653  1.00  0.00     0.273 C 
HETATM   17  C   UNL     1       1.781  -5.412   2.906  1.00  0.00     0.246 C 
HETATM   18  C   UNL     1       3.254  -7.906   2.899  1.00  0.00     0.030 C 
HETATM   19  C   UNL     1       2.622  -7.396   4.190  1.00  0.00     0.004 C 
HETATM   20  C   UNL     1       2.514  -5.875   4.171  1.00  0.00     0.038 C 
HETATM   21  C   UNL     1       1.587  -3.894   2.907  1.00  0.00     0.204 C 
HETATM   22  O   UNL     1       0.743  -3.529   1.813  1.00  0.00    -0.381 OA
ENDBRANCH  12  13
ENDBRANCH  10  12
ENDBRANCH   9  10
TORSDOF 3
