REMARK  7 active torsions:
REMARK  status: ('A' for Active; 'I' for Inactive)
REMARK    1  A    between atoms: C_5  and  O_6 
REMARK    2  A    between atoms: O_6  and  C_7 
REMARK    3  A    between atoms: C_7  and  C_8 
REMARK    4  A    between atoms: C_8  and  N_9 
REMARK    5  A    between atoms: C_10  and  C_11 
REMARK    6  A    between atoms: C_11  and  N_12 
REMARK    7  A    between atoms: N_12  and  C_13 
ROOT
HETATM    1  N   UNL     1       9.524  -2.153  -0.997  1.00  0.00    -0.331 N 
HETATM    2  C   UNL     1       9.711  -3.112  -0.017  1.00  0.00     0.102 A 
HETATM    3  N   UNL     1      10.364  -4.151  -0.502  1.00  0.00    -0.343 N 
ATOM      4  HN  UNL     1      10.585  -5.019  -0.014  1.00  0.00     0.167 HD
HETATM    5  C   UNL     1      10.684  -3.828  -1.793  1.00  0.00     0.060 A 
HETATM    6  C   UNL     1      11.434  -4.558  -2.726  1.00  0.00     0.032 A 
HETATM    7  C   UNL     1      11.646  -4.013  -3.997  1.00  0.00     0.002 A 
HETATM    8  C   UNL     1      11.109  -2.770  -4.335  1.00  0.00     0.002 A 
HETATM    9  C   UNL     1      10.352  -2.030  -3.414  1.00  0.00     0.032 A 
HETATM   10  C   UNL     1      10.164  -2.584  -2.141  1.00  0.00     0.062 A 
ENDROOT
BRANCH   1  11
HETATM   11  C   UNL     1       8.798  -0.900  -0.846  1.00  0.00     0.157 C 
BRANCH  11  12
HETATM   12  C   UNL     1       7.297  -1.107  -0.668  1.00  0.00     0.196 C 
BRANCH  12  13
HETATM   13  O   UNL     1       6.633   0.153  -0.533  1.00  0.00    -0.350 OA
BRANCH  13  14
HETATM   14  C   UNL     1       5.301   0.049  -0.210  1.00  0.00     0.068 A 
HETATM   15  C   UNL     1       4.760   1.111   0.515  1.00  0.00     0.037 A 
HETATM   16  C   UNL     1       3.402   1.120   0.853  1.00  0.00     0.009 A 
HETATM   17  C   UNL     1       2.566   0.070   0.457  1.00  0.00    -0.062 A 
HETATM   18  C   UNL     1       1.096   0.086   0.750  1.00  0.00     0.048 C 
HETATM   19  C   UNL     1       3.114  -0.996  -0.263  1.00  0.00     0.009 A 
HETATM   20  C   UNL     1       4.471  -1.006  -0.596  1.00  0.00     0.037 A 
ENDBRANCH  13  14
ENDBRANCH  12  13
ENDBRANCH  11  12
ENDBRANCH   1  11
BRANCH   2  21
HETATM   21  C   UNL     1       9.253  -2.996   1.400  1.00  0.00     0.198 C 
BRANCH  21  22
HETATM   22  N   UNL     1       7.943  -3.596   1.530  1.00  0.00    -0.361 N 
HETATM   23  H   UNL     1       7.738  -4.418   0.977  1.00  0.00     0.162 HD
BRANCH  22  24
HETATM   24  C   UNL     1       7.144  -3.285   2.597  1.00  0.00     0.348 C 
HETATM   25  O   UNL     1       7.393  -2.443   3.446  1.00  0.00    -0.284 OA
ENDBRANCH  22  24
ENDBRANCH  21  22
ENDBRANCH   2  21
TORSDOF 7
