REMARK  4 active torsions:
REMARK  status: ('A' for Active; 'I' for Inactive)
REMARK    1  A    between atoms: N_4  and  C_5 
REMARK    2  A    between atoms: C_5  and  C_6 
REMARK    3  A    between atoms: C_6  and  O_7 
REMARK    4  A    between atoms: O_7  and  C_8 
ROOT
HETATM    1  C   UNL     1       4.610   6.015  -0.362  1.00  0.00     0.070 A 
HETATM    2  C   UNL     1       3.226   6.091  -0.180  1.00  0.00     0.037 A 
HETATM    3  C   UNL     1       2.580   7.329  -0.170  1.00  0.00     0.004 A 
HETATM    4  C   UNL     1       3.311   8.503  -0.344  1.00  0.00     0.023 A 
HETATM    5  C   UNL     1       4.696   8.440  -0.529  1.00  0.00     0.047 A 
HETATM    6  C   UNL     1       5.446   9.648  -0.714  1.00  0.00     0.099 C 
HETATM    7  N   UNL     1       6.041  10.633  -0.862  1.00  0.00    -0.191 NA
HETATM    8  C   UNL     1       5.341   7.196  -0.534  1.00  0.00     0.059 A 
ENDROOT
BRANCH   1   9
HETATM    9  O   UNL     1       5.348   4.859  -0.387  1.00  0.00    -0.349 OA
BRANCH   9  10
HETATM   10  C   UNL     1       4.609   3.637  -0.291  1.00  0.00     0.196 C 
BRANCH  10  11
HETATM   11  C   UNL     1       5.564   2.441  -0.367  1.00  0.00     0.160 C 
BRANCH  11  12
HETATM   12  N   UNL     1       4.848   1.162  -0.267  1.00  0.00    -0.306 N 
HETATM   13  C   UNL     1       4.660   0.579   0.973  1.00  0.00     0.125 A 
HETATM   14  C   UNL     1       3.947  -0.541   1.134  1.00  0.00     0.117 A 
HETATM   15 CL   UNL     1       3.697  -1.251   2.675  1.00  0.00    -0.077 Cl
HETATM   16  C   UNL     1       3.337  -1.173  -0.062  1.00  0.00     0.272 A 
HETATM   17  N   UNL     1       3.621  -0.562  -1.255  1.00  0.00    -0.274 N 
HETATM   18  O   UNL     1       2.612  -2.160  -0.006  1.00  0.00    -0.266 OA
HETATM   19  C   UNL     1       4.299   0.617  -1.423  1.00  0.00     0.329 A 
HETATM   20  H   UNL     1       3.198  -0.960  -2.080  1.00  0.00     0.173 HD
HETATM   21  O   UNL     1       4.376   1.139  -2.531  1.00  0.00    -0.246 OA
ENDBRANCH  11  12
ENDBRANCH  10  11
ENDBRANCH   9  10
ENDBRANCH   1   9
TORSDOF 4
