REMARK  3 active torsions:
REMARK  status: ('A' for Active; 'I' for Inactive)
REMARK    1  A    between atoms: C_6  and  N_7 
REMARK    2  A    between atoms: N_7  and  C_8 
REMARK    3  A    between atoms: C_8  and  C_9 
ROOT
HETATM    1  C   UNL     1       0.953   0.470  -0.370  1.00  0.00     0.181 C 
HETATM    2  N   UNL     1       2.393   0.341  -0.254  1.00  0.00    -0.261 N 
HETATM    3  N   UNL     1       3.066  -0.074  -1.375  1.00  0.00    -0.305 N 
ATOM      4  HN  UNL     1       2.572  -0.317  -2.234  1.00  0.00     0.186 HD
HETATM    5  C   UNL     1       4.354  -0.143  -1.293  1.00  0.00     0.132 A 
HETATM    6  C   UNL     1       5.189   0.189  -0.112  1.00  0.00     0.053 A 
HETATM    7  C   UNL     1       4.494   0.587   0.961  1.00  0.00     0.126 A 
HETATM    8 CL   UNL     1       5.303   1.018   2.430  1.00  0.00    -0.076 Cl
HETATM    9  C   UNL     1       3.004   0.662   0.954  1.00  0.00     0.285 A 
HETATM   10  O   UNL     1       2.377   1.002   1.956  1.00  0.00    -0.265 OA
ENDROOT
BRANCH   6  11
HETATM   11  N   UNL     1       6.572   0.135  -0.279  1.00  0.00    -0.288 NA
HETATM   12  H   UNL     1       7.011   0.884   0.266  1.00  0.00     0.127 HD
BRANCH  11  13
HETATM   13  C   UNL     1       7.325  -1.100   0.006  1.00  0.00     0.124 C 
BRANCH  13  14
HETATM   14  C   UNL     1       8.161  -1.520  -1.207  1.00  0.00     0.134 C 
HETATM   15  C   UNL     1       8.994  -2.771  -0.958  1.00  0.00     0.035 C 
HETATM   16  C   UNL     1      10.277  -2.537  -1.734  1.00  0.00     0.029 C 
HETATM   17  C   UNL     1      10.097  -1.175  -2.370  1.00  0.00     0.168 C 
HETATM   18  O   UNL     1       9.125  -0.510  -1.559  1.00  0.00    -0.385 OA
ENDBRANCH  13  14
ENDBRANCH  11  13
ENDBRANCH   6  11
TORSDOF 3
