REMARK  3 active torsions:
REMARK  status: ('A' for Active; 'I' for Inactive)
REMARK    1  A    between atoms: C_8  and  C_9 
REMARK    2  A    between atoms: C_9  and  C_10 
REMARK       I    between atoms: C_10  and  N_12 
REMARK    3  A    between atoms: N_12  and  C_13 
ROOT
HETATM    1  C   UNL     1       1.980   3.206   0.462  1.00  0.00     0.222 C 
HETATM    2  O   UNL     1       1.288   2.370   1.044  1.00  0.00    -0.273 OA
HETATM    3  N   UNL     1       1.450   4.346  -0.100  1.00  0.00    -0.348 N 
HETATM    4  H   UNL     1       2.056   5.138  -0.296  1.00  0.00     0.163 HD
ENDROOT
BRANCH   1   5
HETATM    5  C   UNL     1       3.464   3.000   0.255  1.00  0.00     0.146 C 
BRANCH   5   6
HETATM    6  C   UNL     1       4.362   3.610   1.274  1.00  0.00     0.006 A 
HETATM    7  C   UNL     1       4.171   3.881   2.663  1.00  0.00     0.038 A 
HETATM    8  C   UNL     1       2.985   3.658   3.521  1.00  0.00     0.071 C 
HETATM    9  N   UNL     1       5.276   4.399   3.214  1.00  0.00    -0.265 N 
HETATM   10  O   UNL     1       6.217   4.450   2.212  1.00  0.00    -0.242 OA
ATOM     11  HN  UNL     1       5.396   4.696   4.182  1.00  0.00     0.194 HD
HETATM   12  C   UNL     1       5.680   3.972   1.064  1.00  0.00     0.081 A 
HETATM   13  C   UNL     1       6.583   3.914  -0.103  1.00  0.00     0.079 C 
ENDBRANCH   5   6
ENDBRANCH   1   5
BRANCH   3  14
HETATM   14  C   UNL     1       0.004   4.606  -0.047  1.00  0.00     0.170 C 
HETATM   15  C   UNL     1      -0.692   3.920  -1.226  1.00  0.00     0.034 C 
HETATM   16  C   UNL     1      -2.197   3.810  -0.997  1.00  0.00     0.004 C 
HETATM   17  C   UNL     1      -2.988   5.041  -1.417  1.00  0.00     0.015 C 
HETATM   18  C   UNL     1      -2.276   6.380  -1.295  1.00  0.00     0.095 C 
HETATM   19  N   UNL     1      -1.529   6.599  -0.073  1.00  0.00    -0.261 NA
HETATM   20  C   UNL     1      -0.248   6.120   0.073  1.00  0.00     0.220 C 
HETATM   21  H   UNL     1      -1.534   7.573   0.211  1.00  0.00     0.130 HD
HETATM   22  O   UNL     1       0.638   6.901   0.429  1.00  0.00    -0.278 OA
ENDBRANCH   3  14
TORSDOF 3
