REMARK  6 active torsions:
REMARK  status: ('A' for Active; 'I' for Inactive)
REMARK    1  A    between atoms: C_2  and  C_3 
REMARK    2  A    between atoms: C_2  and  C_17 
REMARK    3  A    between atoms: C_3  and  N_4 
REMARK       I    between atoms: N_4  and  C_5 
REMARK    4  A    between atoms: C_5  and  C_7 
REMARK    5  A    between atoms: C_7  and  C_13 
REMARK    6  A    between atoms: C_13  and  N_14 
ROOT
HETATM    1  N   UNL     1       2.485   0.295  -2.524  1.00  0.00    -0.359 N 
HETATM    2  C   UNL     1       3.205  -0.663  -3.202  1.00  0.00     0.239 C 
HETATM    3  O   UNL     1       4.283  -1.071  -2.766  1.00  0.00    -0.272 OA
HETATM    4  H   UNL     1       1.576   0.605  -2.849  1.00  0.00     0.162 HD
ENDROOT
BRANCH   1   5
HETATM    5  C   UNL     1       2.946   0.831  -1.257  1.00  0.00     0.131 C 
BRANCH   5   6
HETATM    6  C   UNL     1       2.396   0.092  -0.012  1.00  0.00     0.037 C 
HETATM    7  C   UNL     1       2.968  -1.331   0.052  1.00  0.00     0.017 C 
BRANCH   6   8
HETATM    8  C   UNL     1       0.886   0.165   0.123  1.00  0.00     0.003 A 
HETATM    9  C   UNL     1       0.071   1.345   0.194  1.00  0.00     0.038 A 
HETATM   10  C   UNL     1       0.438   2.783   0.162  1.00  0.00     0.071 C 
HETATM   11  N   UNL     1      -1.224   1.044   0.319  1.00  0.00    -0.265 N 
HETATM   12  O   UNL     1      -1.290  -0.323   0.385  1.00  0.00    -0.242 OA
ATOM     13  HN  UNL     1      -2.005   1.699   0.358  1.00  0.00     0.194 HD
HETATM   14  C   UNL     1      -0.044  -0.852   0.285  1.00  0.00     0.081 A 
HETATM   15  C   UNL     1      -0.005  -2.327   0.398  1.00  0.00     0.079 C 
ENDBRANCH   6   8
ENDBRANCH   5   6
ENDBRANCH   1   5
BRANCH   2  16
HETATM   16  C   UNL     1       2.651  -1.151  -4.552  1.00  0.00     0.112 C 
HETATM   17  C   UNL     1       1.119  -1.101  -4.700  1.00  0.00     0.033 C 
HETATM   18  C   UNL     1       0.415  -2.078  -3.757  1.00  0.00     0.002 C 
HETATM   19  C   UNL     1       0.915  -3.507  -3.942  1.00  0.00     0.000 C 
HETATM   20  C   UNL     1       2.434  -3.602  -3.853  1.00  0.00     0.002 C 
HETATM   21  C   UNL     1       3.122  -2.609  -4.794  1.00  0.00     0.033 C 
BRANCH  16  22
HETATM   22  C   UNL     1       3.304  -0.269  -5.604  1.00  0.00    -0.058 C 
BRANCH  22  23
HETATM   23  N   UNL     1       3.845   0.463  -6.477  1.00  0.00    -0.369 N 
ATOM     24  HN2 UNL     1       3.377  -0.118  -5.781  1.00  0.00     0.165 HD
ATOM     25  HN1 UNL     1       4.283   1.055  -7.183  1.00  0.00     0.165 HD
ENDBRANCH  22  23
ENDBRANCH  16  22
ENDBRANCH   2  16
TORSDOF 6
