REMARK  8 active torsions:
REMARK  status: ('A' for Active; 'I' for Inactive)
REMARK    1  A    between atoms: N_2  and  C_13 
REMARK    2  A    between atoms: C_6  and  N_8 
REMARK    3  A    between atoms: C_13  and  C_14 
REMARK    4  A    between atoms: C_14  and  C_18 
REMARK    5  A    between atoms: C_14  and  O_25 
REMARK    6  A    between atoms: N_15  and  C_21 
REMARK    7  A    between atoms: C_21  and  C_26 
REMARK    8  A    between atoms: N_22  and  C_26 
ROOT
HETATM    1  C   UNL     1       0.015  -0.683   0.616  1.00  0.00     0.117 A 
HETATM    2  N   UNL     1       0.853   1.210   1.337  1.00  0.00    -0.325 N 
HETATM    3  C   UNL     1      -0.066   0.694   0.461  1.00  0.00     0.140 A 
HETATM    4  N   UNL     1       0.978  -1.004   1.556  1.00  0.00    -0.346 N 
ATOM      5  HN  UNL     1       1.252  -1.935   1.870  1.00  0.00     0.167 HD
HETATM    6  C   UNL     1      -0.856  -1.482  -0.167  1.00  0.00     0.114 A 
HETATM    7  C   UNL     1       1.463   0.151   1.957  1.00  0.00     0.185 A 
HETATM    8  N   UNL     1      -0.890   1.369  -0.359  1.00  0.00    -0.336 N 
ATOM      9  HN  UNL     1      -0.924   2.385  -0.438  1.00  0.00     0.168 HD
HETATM   10  N   UNL     1      -1.697  -0.827  -1.019  1.00  0.00    -0.341 N 
ATOM     11  HN  UNL     1      -2.340  -1.349  -1.614  1.00  0.00     0.167 HD
HETATM   12  C   UNL     1      -1.665   0.521  -1.062  1.00  0.00     0.183 A 
ENDROOT
BRANCH   6  13
HETATM   13  N   UNL     1      -0.846  -2.886  -0.111  1.00  0.00    -0.266 NA
HETATM   14  C   UNL     1      -1.356  -3.554  -1.317  1.00  0.00     0.127 C 
HETATM   15  C   UNL     1      -0.563  -4.860  -1.551  1.00  0.00     0.287 C 
HETATM   16  N   UNL     1      -0.984  -6.080  -0.820  1.00  0.00     0.091 N 
HETATM   17  C   UNL     1      -1.621  -5.815   0.474  1.00  0.00     0.273 C 
HETATM   18  C   UNL     1      -0.906  -4.842   1.412  1.00  0.00     0.045 C 
HETATM   19  C   UNL     1      -1.327  -3.392   1.177  1.00  0.00     0.099 C 
BRANCH  16  20
HETATM   20  C   UNL     1       0.172  -7.008  -0.744  1.00  0.00     0.302 C 
BRANCH  20  21
HETATM   21  C   UNL     1      -0.133  -8.397  -0.129  1.00  0.00     0.301 C 
BRANCH  21  22
HETATM   22  N   UNL     1       1.006  -9.344  -0.117  1.00  0.00     0.081 N 
HETATM   23  C   UNL     1       2.140  -8.821   0.651  1.00  0.00     0.309 C 
HETATM   24  C   UNL     1       0.562 -10.612   0.472  1.00  0.00     0.309 C 
ENDBRANCH  21  22
ENDBRANCH  20  21
ENDBRANCH  16  20
ENDBRANCH   6  13
BRANCH   2  25
HETATM   25  C   UNL     1       1.010   2.608   1.705  1.00  0.00     0.165 C 
BRANCH  25  26
HETATM   26  C   UNL     1       2.372   3.226   1.348  1.00  0.00     0.165 C 
BRANCH  26  27
HETATM   27  C   UNL     1       2.509   4.696   1.792  1.00  0.00     0.151 C 
HETATM   28  O   UNL     1       2.317   4.799   3.221  1.00  0.00    -0.383 OA
HETATM   29  C   UNL     1       1.818   6.119   3.507  1.00  0.00     0.168 C 
HETATM   30  C   UNL     1       1.673   6.842   2.185  1.00  0.00     0.029 C 
HETATM   31  C   UNL     1       1.555   5.708   1.188  1.00  0.00     0.036 C 
ENDBRANCH  26  27
BRANCH  26  32
HETATM   32  O   UNL     1       3.426   2.497   2.007  1.00  0.00    -0.391 OA
HETATM   33  H   UNL     1       3.587   2.945   2.862  1.00  0.00     0.210 HD
ENDBRANCH  26  32
ENDBRANCH  25  26
ENDBRANCH   2  25
TORSDOF 8
