REMARK  3 active torsions:
REMARK  status: ('A' for Active; 'I' for Inactive)
REMARK       I    between atoms: N_2  and  C_3 
REMARK    1  A    between atoms: C_3  and  C_5 
REMARK    2  A    between atoms: C_10  and  O_11 
REMARK    3  A    between atoms: O_11  and  C_12 
ROOT
HETATM    1  C   UNL     1       4.746   0.733   0.982  1.00  0.00     0.037 A 
HETATM    2  C   UNL     1       5.504   1.899   1.076  1.00  0.00     0.034 A 
HETATM    3  C   UNL     1       6.879   1.786   0.991  1.00  0.00     0.091 A 
HETATM    4  N   UNL     1       7.525   0.613   0.813  1.00  0.00    -0.347 N 
ATOM      5  HN  UNL     1       8.542   0.569   0.741  1.00  0.00     0.167 HD
HETATM    6  C   UNL     1       6.764  -0.497   0.735  1.00  0.00     0.143 A 
HETATM    7  C   UNL     1       5.386  -0.497   0.836  1.00  0.00     0.073 A 
ENDROOT
BRANCH   6   8
HETATM    8  O   UNL     1       7.364  -1.726   0.564  1.00  0.00    -0.328 OA
BRANCH   8   9
HETATM    9  C   UNL     1       8.666  -1.645  -0.004  1.00  0.00     0.156 C 
HETATM   10  C   UNL     1       9.019  -2.972  -0.644  1.00  0.00     0.061 C 
HETATM   11  C   UNL     1      10.532  -2.954  -0.646  1.00  0.00     0.170 C 
HETATM   12  O   UNL     1      10.957  -2.059   0.392  1.00  0.00    -0.389 OA
HETATM   13  C   UNL     1       9.782  -1.520   1.018  1.00  0.00     0.200 C 
ENDBRANCH   8   9
ENDBRANCH   6   8
BRANCH   1  14
HETATM   14  C   UNL     1       3.269   0.834   1.056  1.00  0.00     0.251 C 
HETATM   15  N   UNL     1       2.561  -0.109   0.339  1.00  0.00    -0.361 N 
HETATM   16  C   UNL     1       1.119  -0.092   0.320  1.00  0.00     0.149 C 
HETATM   17  H   UNL     1       3.039  -0.708  -0.320  1.00  0.00     0.162 HD
HETATM   18  O   UNL     1       2.747   1.736   1.698  1.00  0.00    -0.268 OA
ENDBRANCH   1  14
TORSDOF 3
