REMARK  4 active torsions:
REMARK  status: ('A' for Active; 'I' for Inactive)
REMARK    1  A    between atoms: C_2  and  C_5 
REMARK    2  A    between atoms: N_9  and  C_10 
REMARK    3  A    between atoms: C_10  and  C_11 
REMARK       I    between atoms: C_11  and  N_13 
REMARK    4  A    between atoms: N_13  and  C_14 
ROOT
HETATM    1  C   UNL     1       3.312   1.579  -0.661  1.00  0.00     0.115 C 
HETATM    2  C   UNL     1       2.239   2.337  -0.958  1.00  0.00     0.023 C 
HETATM    3  C   UNL     1       2.027   2.835  -2.294  1.00  0.00     0.018 C 
HETATM    4  C   UNL     1       2.812   2.408  -3.289  1.00  0.00     0.095 C 
HETATM    5  N   UNL     1       3.909   1.599  -3.031  1.00  0.00    -0.315 N 
HETATM    6  C   UNL     1       4.312   1.322  -1.723  1.00  0.00     0.263 C 
HETATM    7  O   UNL     1       5.410   0.827  -1.469  1.00  0.00    -0.267 OA
ENDROOT
BRANCH   5   8
HETATM    8  C   UNL     1       4.756   1.141  -4.135  1.00  0.00     0.234 C 
BRANCH   8   9
HETATM    9  C   UNL     1       4.686  -0.389  -4.325  1.00  0.00     0.236 C 
HETATM   10  O   UNL     1       4.236  -0.895  -5.350  1.00  0.00    -0.272 OA
HETATM   11  N   UNL     1       5.219  -1.125  -3.288  1.00  0.00    -0.353 N 
HETATM   12  H   UNL     1       5.597  -0.604  -2.495  1.00  0.00     0.163 HD
BRANCH  11  13
HETATM   13  C   UNL     1       5.328  -2.569  -3.232  1.00  0.00     0.110 C 
HETATM   14  C   UNL     1       6.215  -3.188  -4.290  1.00  0.00     0.053 C 
HETATM   15  C   UNL     1       5.702  -4.615  -4.396  1.00  0.00     0.169 C 
HETATM   16  O   UNL     1       4.477  -4.707  -3.652  1.00  0.00    -0.389 OA
HETATM   17  C   UNL     1       4.043  -3.367  -3.377  1.00  0.00     0.192 C 
ENDBRANCH  11  13
ENDBRANCH   8   9
ENDBRANCH   5   8
BRANCH   1  18
HETATM   18  C   UNL     1       3.497   0.888   0.638  1.00  0.00     0.422 C 
HETATM   19  F   UNL     1       4.584   0.085   0.738  1.00  0.00    -0.166 F 
HETATM   20  F   UNL     1       2.424   0.088   0.904  1.00  0.00    -0.166 F 
HETATM   21  F   UNL     1       3.569   1.771   1.667  1.00  0.00    -0.166 F 
ENDBRANCH   1  18
TORSDOF 4
