REMARK  2 active torsions:
REMARK  status: ('A' for Active; 'I' for Inactive)
REMARK    1  A    between atoms: C_4  and  N_5 
REMARK       I    between atoms: N_5  and  C_6 
REMARK       I    between atoms: C_6  and  N_8 
REMARK    2  A    between atoms: N_8  and  C_9 
ROOT
HETATM    1  N   UNL     1       5.166   2.674   0.005  1.00  0.00    -0.308 N 
HETATM    2  C   UNL     1       4.559   3.827   0.463  1.00  0.00     0.321 C 
HETATM    3  O   UNL     1       3.602   3.870   1.226  1.00  0.00    -0.247 OA
HETATM    4  N   UNL     1       5.139   4.973  -0.047  1.00  0.00    -0.338 N 
HETATM    5  H   UNL     1       6.112   2.772  -0.322  1.00  0.00     0.170 HD
HETATM    6  H   UNL     1       5.464   4.835  -0.995  1.00  0.00     0.164 HD
ENDROOT
BRANCH   1   7
HETATM    7  C   UNL     1       4.693   1.397   0.249  1.00  0.00     0.052 A 
HETATM    8  C   UNL     1       3.431   1.122   0.620  1.00  0.00     0.123 A 
HETATM    9  N   UNL     1       3.001  -0.159   0.907  1.00  0.00    -0.327 N 
HETATM   10  C   UNL     1       1.625  -0.370   1.324  1.00  0.00     0.159 C 
HETATM   11  C   UNL     1       3.848  -1.257   0.839  1.00  0.00     0.247 A 
HETATM   12  C   UNL     1       5.238  -0.966   0.390  1.00  0.00     0.077 A 
HETATM   13  O   UNL     1       3.526  -2.410   1.107  1.00  0.00    -0.268 OA
HETATM   14  C   UNL     1       5.617   0.288   0.099  1.00  0.00     0.036 A 
ENDBRANCH   1   7
BRANCH   4  15
HETATM   15  C   UNL     1       4.465   6.257   0.201  1.00  0.00     0.090 C 
HETATM   16  C   UNL     1       5.086   7.370  -0.644  1.00  0.00     0.051 C 
HETATM   17  C   UNL     1       6.413   7.803  -0.048  1.00  0.00     0.169 C 
HETATM   18  O   UNL     1       6.196   8.326   1.259  1.00  0.00    -0.391 OA
HETATM   19  C   UNL     1       5.725   7.327   2.161  1.00  0.00     0.169 C 
HETATM   20  C   UNL     1       4.430   6.684   1.681  1.00  0.00     0.051 C 
ENDBRANCH   4  15
TORSDOF 2
