REMARK  7 active torsions:
REMARK  status: ('A' for Active; 'I' for Inactive)
REMARK    1  A    between atoms: O_1  and  C_2 
REMARK    2  A    between atoms: C_2  and  C_3 
REMARK    3  A    between atoms: C_3  and  O_4 
REMARK    4  A    between atoms: O_4  and  C_5 
REMARK    5  A    between atoms: C_5  and  C_6 
REMARK    6  A    between atoms: C_6  and  N_7 
REMARK    7  A    between atoms: N_7  and  C_8 
ROOT
HETATM    1  C   UNL     1       8.282  -4.270   0.322  1.00  0.00     0.100 A 
HETATM    2  C   UNL     1       9.173  -3.305   0.781  1.00  0.00     0.050 A 
HETATM    3  C   UNL     1      10.547  -3.558   0.743  1.00  0.00     0.028 A 
HETATM    4  C   UNL     1      10.998  -4.782   0.264  1.00  0.00     0.060 A 
HETATM    5  C   UNL     1      12.390  -5.094   0.212  1.00  0.00     0.101 C 
HETATM    6  N   UNL     1      13.523  -5.339   0.169  1.00  0.00    -0.191 NA
HETATM    7  C   UNL     1      10.049  -5.694  -0.160  1.00  0.00     0.112 A 
HETATM    8  N   UNL     1       8.713  -5.459  -0.143  1.00  0.00    -0.351 N 
ATOM      9  HN  UNL     1       8.053  -6.163  -0.473  1.00  0.00     0.166 HD
ENDROOT
BRANCH   1  10
HETATM   10  N   UNL     1       6.913  -4.114   0.366  1.00  0.00    -0.374 N 
HETATM   11  H   UNL     1       6.475  -4.901  -0.103  1.00  0.00     0.161 HD
BRANCH  10  12
HETATM   12  C   UNL     1       6.310  -2.806   0.141  1.00  0.00     0.147 C 
BRANCH  12  13
HETATM   13  C   UNL     1       4.777  -2.897   0.112  1.00  0.00     0.187 C 
BRANCH  13  14
HETATM   14  O   UNL     1       4.297  -3.370   1.373  1.00  0.00    -0.387 OA
BRANCH  14  15
HETATM   15  C   UNL     1       2.876  -3.472   1.401  1.00  0.00     0.193 C 
BRANCH  15  16
HETATM   16  C   UNL     1       2.449  -4.065   2.738  1.00  0.00     0.190 C 
BRANCH  16  17
HETATM   17  O   UNL     1       1.031  -4.146   2.809  1.00  0.00    -0.399 OA
HETATM   18  H   UNL     1       0.818  -4.535   3.675  1.00  0.00     0.209 HD
ENDBRANCH  16  17
ENDBRANCH  15  16
ENDBRANCH  14  15
ENDBRANCH  13  14
ENDBRANCH  12  13
ENDBRANCH  10  12
ENDBRANCH   1  10
TORSDOF 7
