REMARK  4 active torsions:
REMARK  status: ('A' for Active; 'I' for Inactive)
REMARK    1  A    between atoms: C_2  and  C_3 
REMARK    2  A    between atoms: C_3  and  N_7 
REMARK       I    between atoms: N_7  and  C_8 
REMARK       I    between atoms: C_8  and  N_10 
REMARK    3  A    between atoms: N_10  and  C_11 
REMARK    4  A    between atoms: C_13  and  O_14 
ROOT
HETATM    1  N   UNL     1       2.940   1.040  -2.216  1.00  0.00    -0.334 N 
HETATM    2  C   UNL     1       3.425   1.791  -3.249  1.00  0.00     0.322 C 
HETATM    3  O   UNL     1       4.006   2.863  -3.111  1.00  0.00    -0.247 OA
HETATM    4  N   UNL     1       3.159   1.308  -4.507  1.00  0.00    -0.295 N 
HETATM    5  H   UNL     1       2.627   0.119  -2.510  1.00  0.00     0.165 HD
HETATM    6  H   UNL     1       3.396   1.956  -5.245  1.00  0.00     0.172 HD
ENDROOT
BRANCH   4   7
HETATM    7  C   UNL     1       2.561   0.081  -4.839  1.00  0.00     0.114 A 
HETATM    8  C   UNL     1       2.079  -0.109  -6.111  1.00  0.00     0.104 A 
HETATM    9  C   UNL     1       1.432  -1.305  -6.316  1.00  0.00     0.146 A 
HETATM   10  N   UNL     1       1.317  -2.275  -5.394  1.00  0.00    -0.333 N 
HETATM   11  C   UNL     1       1.859  -2.006  -4.211  1.00  0.00     0.183 A 
ATOM     12  HN  UNL     1       0.846  -3.158  -5.589  1.00  0.00     0.168 HD
HETATM   13  N   UNL     1       2.458  -0.861  -3.877  1.00  0.00    -0.338 N 
ATOM     14  HN  UNL     1       2.822  -0.704  -2.937  1.00  0.00     0.168 HD
BRANCH   9  15
HETATM   15  O   UNL     1       0.841  -1.490  -7.552  1.00  0.00    -0.341 OA
HETATM   16  C   UNL     1       0.075  -2.694  -7.614  1.00  0.00     0.211 C 
ENDBRANCH   9  15
ENDBRANCH   4   7
BRANCH   1  17
HETATM   17  C   UNL     1       3.044   1.320  -0.775  1.00  0.00     0.034 C 
HETATM   18  C   UNL     1       2.179   2.524  -0.312  1.00  0.00     0.031 C 
HETATM   19  C   UNL     1       1.069   1.549   0.109  1.00  0.00     0.005 C 
HETATM   20  C   UNL     1       2.089   0.401   0.050  1.00  0.00     0.031 C 
BRANCH  17  21
HETATM   21  C   UNL     1       4.496   1.328  -0.298  1.00  0.00     0.026 C 
HETATM   22  C   UNL     1       5.254   0.070  -0.701  1.00  0.00     0.007 C 
ENDBRANCH  17  21
ENDBRANCH   1  17
TORSDOF 4
