REMARK  7 active torsions:
REMARK  status: ('A' for Active; 'I' for Inactive)
REMARK    1  A    between atoms: C_2  and  C_3 
REMARK    2  A    between atoms: C_3  and  C_4 
REMARK    3  A    between atoms: C_4  and  N_5 
REMARK    4  A    between atoms: C_6  and  N_7 
REMARK    5  A    between atoms: C_8  and  N_9 
REMARK    6  A    between atoms: N_9  and  C_10 
REMARK       I    between atoms: N_9  and  C_12 
REMARK    7  A    between atoms: C_12  and  C_14 
ROOT
HETATM    1  N   UNL     1       5.091   2.115   1.818  1.00  0.00    -0.293 N 
HETATM    2  C   UNL     1       5.670   1.785   3.068  1.00  0.00     0.116 C 
HETATM    3  C   UNL     1       6.004   2.785   3.956  1.00  0.00     0.139 C 
HETATM    4  C   UNL     1       5.357   4.061   3.488  1.00  0.00     0.259 C 
HETATM    5  O   UNL     1       4.617   4.735   4.196  1.00  0.00    -0.272 OA
HETATM    6  N   UNL     1       5.533   4.358   2.189  1.00  0.00    -0.173 NA
HETATM    7  C   UNL     1       5.027   3.424   1.350  1.00  0.00     0.308 C 
HETATM    8  O   UNL     1       4.502   3.773   0.295  1.00  0.00    -0.253 OA
HETATM    9  H   UNL     1       5.169   5.264   1.925  1.00  0.00     0.141 HD
ENDROOT
BRANCH   3  10
HETATM   10  N   UNL     1       6.708   2.732   5.222  1.00  0.00    -0.305 N 
HETATM   11  C   UNL     1       7.382   1.558   5.679  1.00  0.00     0.283 C 
HETATM   12  O   UNL     1       7.630   0.596   4.944  1.00  0.00    -0.265 OA
BRANCH  10  13
HETATM   13  C   UNL     1       6.913   3.910   6.093  1.00  0.00     0.128 C 
HETATM   14  C   UNL     1       6.777   5.377   5.725  1.00  0.00     0.027 C 
ENDBRANCH  10  13
BRANCH  11  15
HETATM   15  C   UNL     1       7.860   1.418   7.139  1.00  0.00     0.159 C 
HETATM   16  C   UNL     1       8.694   0.398   7.405  1.00  0.00     0.177 C 
HETATM   17  O   UNL     1       9.190   0.050   8.632  1.00  0.00    -0.358 OA
HETATM   18  C   UNL     1       8.826   0.928   9.695  1.00  0.00     0.201 C 
HETATM   19  C   UNL     1       7.549   1.726   9.455  1.00  0.00     0.202 C 
HETATM   20  O   UNL     1       7.417   2.262   8.138  1.00  0.00    -0.342 OA
ENDBRANCH  11  15
ENDBRANCH   3  10
BRANCH   2  21
HETATM   21  N   UNL     1       5.828   0.432   3.307  1.00  0.00    -0.286 NA
HETATM   22  H   UNL     1       6.244  -0.037   2.511  1.00  0.00     0.125 HD
HETATM   23  H   UNL     1       6.430   0.245   4.110  1.00  0.00     0.125 HD
ENDBRANCH   2  21
BRANCH   1  24
HETATM   24  C   UNL     1       4.541   1.070   0.928  1.00  0.00     0.134 C 
BRANCH  24  25
HETATM   25  C   UNL     1       3.299   0.378   1.499  1.00  0.00     0.020 C 
BRANCH  25  26
HETATM   26  C   UNL     1       2.773  -0.707   0.559  1.00  0.00    -0.003 C 
HETATM   27  C   UNL     1       1.596  -1.443   1.181  1.00  0.00     0.005 C 
ENDBRANCH  25  26
ENDBRANCH  24  25
ENDBRANCH   1  24
TORSDOF 7
