REMARK  3 active torsions:
REMARK  status: ('A' for Active; 'I' for Inactive)
REMARK    1  A    between atoms: C_2  and  N_4 
REMARK    2  A    between atoms: C_7  and  N_8 
REMARK       I    between atoms: N_8  and  C_9 
REMARK       I    between atoms: C_9  and  N_11 
REMARK    3  A    between atoms: N_11  and  C_12 
ROOT
HETATM    1  N   UNL     1       4.389   3.639   0.982  1.00  0.00    -0.329 N 
HETATM    2  C   UNL     1       5.499   4.392   1.277  1.00  0.00     0.324 C 
HETATM    3  O   UNL     1       6.001   4.373   2.393  1.00  0.00    -0.247 OA
HETATM    4  N   UNL     1       5.950   5.083   0.188  1.00  0.00    -0.274 N 
HETATM    5  H   UNL     1       3.821   3.936   0.202  1.00  0.00     0.165 HD
HETATM    6  H   UNL     1       5.338   5.308  -0.578  1.00  0.00     0.174 HD
ENDROOT
BRANCH   1   7
HETATM    7  C   UNL     1       3.683   2.898   2.024  1.00  0.00     0.180 C 
HETATM    8  C   UNL     1       4.480   1.786   2.699  1.00  0.00     0.055 C 
HETATM    9  C   UNL     1       4.228   0.561   1.844  1.00  0.00     0.129 C 
HETATM   10  N   UNL     1       2.949   0.800   1.210  1.00  0.00    -0.346 N 
HETATM   11  C   UNL     1       2.589   2.146   1.282  1.00  0.00     0.243 C 
HETATM   12  O   UNL     1       1.674   2.685   0.671  1.00  0.00    -0.271 OA
BRANCH  10  13
HETATM   13  C   UNL     1       2.464  -0.036   0.110  1.00  0.00     0.079 C 
HETATM   14  C   UNL     1       3.391   0.066  -1.108  1.00  0.00     0.032 C 
HETATM   15  C   UNL     1       2.275  -1.487   0.535  1.00  0.00     0.032 C 
ENDBRANCH  10  13
ENDBRANCH   1   7
BRANCH   4  16
HETATM   16  C   UNL     1       7.136   5.752   0.215  1.00  0.00     0.231 A 
HETATM   17  N   UNL     1       7.518   6.669  -0.649  1.00  0.00    -0.330 N 
HETATM   18  C   UNL     1       8.760   7.039  -0.195  1.00  0.00     0.116 A 
ATOM     19  HN  UNL     1       7.012   7.021  -1.462  1.00  0.00     0.168 HD
HETATM   20  C   UNL     1       9.103   6.286   0.897  1.00  0.00     0.162 A 
HETATM   21  O   UNL     1       8.066   5.451   1.165  1.00  0.00    -0.290 OA
ENDBRANCH   4  16
TORSDOF 3
