REMARK  4 active torsions:
REMARK  status: ('A' for Active; 'I' for Inactive)
REMARK    1  A    between atoms: C_6  and  O_8 
REMARK    2  A    between atoms: O_8  and  C_9 
REMARK    3  A    between atoms: C_9  and  C_10 
REMARK       I    between atoms: C_10  and  N_12 
REMARK    4  A    between atoms: N_12  and  C_13 
ROOT
HETATM    1  C   UNL     1       3.289  -4.795  -3.880  1.00  0.00     0.245 C 
HETATM    2  O   UNL     1       3.646  -5.010  -5.036  1.00  0.00    -0.271 OA
HETATM    3  N   UNL     1       3.311  -5.714  -2.846  1.00  0.00    -0.324 N 
HETATM    4  H   UNL     1       3.370  -5.300  -1.920  1.00  0.00     0.169 HD
ENDROOT
BRANCH   1   5
HETATM    5  C   UNL     1       2.737  -3.435  -3.476  1.00  0.00     0.271 C 
BRANCH   5   6
HETATM    6  O   UNL     1       3.213  -2.964  -2.219  1.00  0.00    -0.377 OA
BRANCH   6   7
HETATM    7  C   UNL     1       2.654  -1.684  -1.866  1.00  0.00     0.122 C 
HETATM    8  C   UNL     1       3.042  -0.586  -2.869  1.00  0.00     0.032 C 
HETATM    9  C   UNL     1       2.595   0.801  -2.430  1.00  0.00     0.003 C 
HETATM   10  C   UNL     1       3.090   1.138  -1.029  1.00  0.00     0.004 C 
HETATM   11  C   UNL     1       2.707   0.071   0.007  1.00  0.00    -0.016 C 
HETATM   12  C   UNL     1       1.210   0.106   0.324  1.00  0.00     0.010 C 
HETATM   13  C   UNL     1       3.157  -1.323  -0.461  1.00  0.00     0.036 C 
ENDBRANCH   6   7
ENDBRANCH   5   6
ENDBRANCH   1   5
BRANCH   3  14
HETATM   14  C   UNL     1       3.766  -7.034  -3.039  1.00  0.00     0.057 A 
HETATM   15  C   UNL     1       3.429  -7.750  -4.193  1.00  0.00     0.033 A 
HETATM   16  C   UNL     1       3.952  -9.014  -4.411  1.00  0.00     0.019 A 
HETATM   17  C   UNL     1       4.790  -9.539  -3.447  1.00  0.00     0.088 A 
HETATM   18  N   UNL     1       5.111  -8.904  -2.300  1.00  0.00    -0.368 N 
HETATM   19  C   UNL     1       4.601  -7.659  -2.107  1.00  0.00     0.032 A 
ATOM     20  HN  UNL     1       5.714  -9.342  -1.604  1.00  0.00     0.165 HD
HETATM   21  C   UNL     1       5.061  -6.949  -0.866  1.00  0.00     0.070 C 
ENDBRANCH   3  14
TORSDOF 4
