REMARK  3 active torsions:
REMARK  status: ('A' for Active; 'I' for Inactive)
REMARK    1  A    between atoms: C_2  and  N_3 
REMARK    2  A    between atoms: C_5  and  N_6 
REMARK       I    between atoms: N_6  and  C_7 
REMARK       I    between atoms: C_7  and  N_9 
REMARK    3  A    between atoms: N_9  and  C_10 
ROOT
HETATM    1  N   UNL     1       3.611   2.785  -3.851  1.00  0.00    -0.306 N 
HETATM    2  C   UNL     1       3.273   4.062  -3.478  1.00  0.00     0.321 C 
HETATM    3  O   UNL     1       2.855   4.402  -2.376  1.00  0.00    -0.247 OA
HETATM    4  N   UNL     1       3.432   4.989  -4.484  1.00  0.00    -0.337 N 
HETATM    5  H   UNL     1       3.893   2.600  -4.801  1.00  0.00     0.171 HD
HETATM    6  H   UNL     1       3.919   4.724  -5.328  1.00  0.00     0.164 HD
ENDROOT
BRANCH   1   7
HETATM    7  C   UNL     1       3.521   1.700  -2.992  1.00  0.00     0.070 A 
HETATM    8  C   UNL     1       3.134   1.709  -1.674  1.00  0.00     0.141 A 
HETATM    9  N   UNL     1       3.175   0.419  -1.244  1.00  0.00    -0.302 N 
HETATM   10  N   UNL     1       3.587  -0.446  -2.191  1.00  0.00    -0.308 N 
HETATM   11  C   UNL     1       3.795   0.339  -3.255  1.00  0.00     0.138 A 
ATOM     12  HN  UNL     1       3.711  -1.456  -2.115  1.00  0.00     0.186 HD
BRANCH   9  13
HETATM   13  C   UNL     1       2.802  -0.037   0.079  1.00  0.00     0.143 C 
HETATM   14  C   UNL     1       3.965   0.021   1.054  1.00  0.00     0.028 C 
ENDBRANCH   9  13
ENDBRANCH   1   7
BRANCH   4  15
HETATM   15  C   UNL     1       3.135   6.401  -4.253  1.00  0.00     0.101 C 
HETATM   16  C   UNL     1       4.025   7.037  -3.163  1.00  0.00     0.041 C 
HETATM   17  C   UNL     1       3.307   8.234  -2.542  1.00  0.00     0.142 C 
HETATM   18  S   UNL     1       1.686   8.312  -3.266  1.00  0.00     0.146 S 
HETATM   19  O   UNL     1       0.693   8.447  -2.222  1.00  0.00    -0.228 OA
HETATM   20  O   UNL     1       1.735   9.215  -4.399  1.00  0.00    -0.228 OA
HETATM   21  C   UNL     1       1.672   6.658  -3.890  1.00  0.00     0.165 C 
ENDBRANCH   4  15
TORSDOF 3
