REMARK  5 active torsions:
REMARK  status: ('A' for Active; 'I' for Inactive)
REMARK    1  A    between atoms: C_2  and  C_3 
REMARK    2  A    between atoms: C_3  and  C_5 
REMARK       I    between atoms: C_5  and  N_7 
REMARK    3  A    between atoms: N_7  and  C_8 
REMARK    4  A    between atoms: C_8  and  C_9 
REMARK    5  A    between atoms: C_12  and  N_16 
ROOT
HETATM    1  C   UNL     1       7.144  -2.095  -3.641  1.00  0.00    -0.025 A 
HETATM    2  C   UNL     1       7.542  -1.334  -4.736  1.00  0.00     0.014 A 
HETATM    3  C   UNL     1       7.784  -1.961  -5.959  1.00  0.00     0.049 A 
HETATM    4  C   UNL     1       7.619  -3.341  -6.087  1.00  0.00     0.103 A 
HETATM    5  N   UNL     1       7.277  -4.085  -5.015  1.00  0.00    -0.352 N 
ATOM      6  HN  UNL     1       7.182  -5.097  -5.095  1.00  0.00     0.166 HD
HETATM    7  C   UNL     1       7.062  -3.465  -3.831  1.00  0.00     0.098 A 
ENDROOT
BRANCH   1   8
HETATM    8  C   UNL     1       6.786  -1.466  -2.331  1.00  0.00     0.162 C 
BRANCH   8   9
HETATM    9  N   UNL     1       7.944  -1.205  -1.512  1.00  0.00    -0.356 N 
HETATM   10  C   UNL     1       7.800  -0.584  -0.294  1.00  0.00     0.221 C 
HETATM   11  O   UNL     1       6.704  -0.233   0.141  1.00  0.00    -0.273 OA
HETATM   12  H   UNL     1       8.846  -1.558  -1.804  1.00  0.00     0.162 HD
BRANCH  10  13
HETATM   13  C   UNL     1       9.108  -0.381   0.470  1.00  0.00     0.073 C 
HETATM   14  C   UNL     1       8.845   0.171   1.872  1.00  0.00     0.020 C 
BRANCH  13  15
HETATM   15  C   UNL     1      10.105   0.491  -0.314  1.00  0.00     0.009 C 
HETATM   16  C   UNL     1       9.620   1.906  -0.601  1.00  0.00     0.006 C 
ENDBRANCH  13  15
ENDBRANCH  10  13
ENDBRANCH   8   9
ENDBRANCH   1   8
BRANCH   4  17
HETATM   17  N   UNL     1       7.737  -3.959  -7.308  1.00  0.00    -0.363 N 
HETATM   18  C   UNL     1       6.974  -5.179  -7.589  1.00  0.00     0.150 C 
HETATM   19  C   UNL     1       7.910  -6.330  -7.978  1.00  0.00     0.187 C 
HETATM   20  O   UNL     1       8.799  -5.951  -9.043  1.00  0.00    -0.388 OA
HETATM   21  C   UNL     1       9.613  -4.842  -8.629  1.00  0.00     0.187 C 
HETATM   22  C   UNL     1       8.763  -3.606  -8.288  1.00  0.00     0.150 C 
ENDBRANCH   4  17
TORSDOF 5
