REMARK  4 active torsions:
REMARK  status: ('A' for Active; 'I' for Inactive)
REMARK    1  A    between atoms: C_2  and  C_5 
REMARK    2  A    between atoms: C_10  and  N_11 
REMARK       I    between atoms: N_11  and  C_12 
REMARK       I    between atoms: C_12  and  N_14 
REMARK    3  A    between atoms: N_14  and  C_15 
REMARK    4  A    between atoms: C_18  and  O_19 
ROOT
HETATM    1  N   UNL     1       4.986  -4.255   2.842  1.00  0.00    -0.288 N 
HETATM    2  C   UNL     1       4.533  -5.536   2.709  1.00  0.00     0.322 C 
HETATM    3  O   UNL     1       3.746  -5.806   1.802  1.00  0.00    -0.247 OA
HETATM    4  N   UNL     1       5.000  -6.469   3.597  1.00  0.00    -0.338 N 
HETATM    5  H   UNL     1       4.686  -3.599   2.143  1.00  0.00     0.172 HD
HETATM    6  H   UNL     1       5.522  -6.118   4.395  1.00  0.00     0.164 HD
ENDROOT
BRANCH   1   7
HETATM    7  C   UNL     1       5.779  -3.822   3.868  1.00  0.00     0.169 A 
HETATM    8  N   UNL     1       6.160  -4.504   4.919  1.00  0.00    -0.279 N 
HETATM    9  N   UNL     1       7.000  -3.779   5.720  1.00  0.00    -0.295 N 
ATOM     10  HN  UNL     1       5.866  -5.460   5.117  1.00  0.00     0.189 HD
HETATM   11  C   UNL     1       7.246  -2.573   5.241  1.00  0.00     0.077 A 
ATOM     12  HN  UNL     1       7.393  -4.132   6.592  1.00  0.00     0.187 HD
HETATM   13  S   UNL     1       6.370  -2.228   3.792  1.00  0.00    -0.037 SA
BRANCH  11  14
HETATM   14  C   UNL     1       8.222  -1.632   5.928  1.00  0.00    -0.001 C 
HETATM   15  C   UNL     1       9.573  -2.366   6.066  1.00  0.00     0.021 C 
HETATM   16  C   UNL     1       7.682  -1.314   7.336  1.00  0.00     0.021 C 
HETATM   17  C   UNL     1       8.467  -0.312   5.183  1.00  0.00     0.021 C 
ENDBRANCH  11  14
ENDBRANCH   1   7
BRANCH   4  18
HETATM   18  C   UNL     1       4.472  -7.823   3.672  1.00  0.00     0.086 C 
HETATM   19  C   UNL     1       4.587  -8.368   5.105  1.00  0.00     0.028 C 
HETATM   20  C   UNL     1       5.885  -9.116   5.395  1.00  0.00     0.034 C 
HETATM   21  C   UNL     1       6.144 -10.209   4.368  1.00  0.00     0.118 C 
HETATM   22  C   UNL     1       6.257  -9.605   2.974  1.00  0.00     0.034 C 
HETATM   23  C   UNL     1       5.058  -8.736   2.577  1.00  0.00     0.028 C 
BRANCH  21  24
HETATM   24  O   UNL     1       5.117 -11.196   4.414  1.00  0.00    -0.396 OA
HETATM   25  H   UNL     1       4.290 -10.817   4.074  1.00  0.00     0.210 HD
ENDBRANCH  21  24
ENDBRANCH   4  18
TORSDOF 4
