REMARK  5 active torsions:
REMARK  status: ('A' for Active; 'I' for Inactive)
REMARK    1  A    between atoms: O_2  and  C_3 
REMARK    2  A    between atoms: C_3  and  C_4 
REMARK    3  A    between atoms: C_4  and  N_5 
REMARK    4  A    between atoms: C_6  and  C_7 
REMARK    5  A    between atoms: C_7  and  N_8 
ROOT
HETATM    1  N   UNL     1       4.842  -2.067  -1.609  1.00  0.00    -0.325 N 
HETATM    2  C   UNL     1       5.522  -1.906  -2.809  1.00  0.00     0.114 A 
HETATM    3  N   UNL     1       5.615  -3.066  -3.448  1.00  0.00    -0.328 N 
ATOM      4  HN  UNL     1       6.016  -3.232  -4.371  1.00  0.00     0.169 HD
HETATM    5  C   UNL     1       5.065  -3.984  -2.615  1.00  0.00     0.145 A 
HETATM    6  N   UNL     1       4.961  -5.334  -2.860  1.00  0.00    -0.288 N 
HETATM    7  C   UNL     1       5.424  -5.937  -4.088  1.00  0.00     0.163 C 
HETATM    8  C   UNL     1       4.369  -6.141  -1.895  1.00  0.00     0.330 A 
HETATM    9  O   UNL     1       4.217  -7.356  -2.025  1.00  0.00    -0.246 OA
HETATM   10  N   UNL     1       3.930  -5.527  -0.741  1.00  0.00    -0.273 N 
HETATM   11  C   UNL     1       3.992  -4.188  -0.435  1.00  0.00     0.280 A 
HETATM   12  O   UNL     1       3.558  -3.751   0.625  1.00  0.00    -0.265 OA
HETATM   13  C   UNL     1       4.598  -3.413  -1.465  1.00  0.00     0.149 A 
HETATM   14  H   UNL     1       3.509  -6.129  -0.051  1.00  0.00     0.173 HD
ENDROOT
BRANCH   2  15
HETATM   15  C   UNL     1       6.066  -0.612  -3.356  1.00  0.00     0.349 C 
BRANCH  15  16
HETATM   16  N   UNL     1       7.455  -0.329  -2.948  1.00  0.00     0.099 N 
HETATM   17  C   UNL     1       7.923   0.949  -3.545  1.00  0.00     0.299 C 
HETATM   18  C   UNL     1       8.239   0.880  -5.054  1.00  0.00     0.198 C 
HETATM   19  O   UNL     1       9.159  -0.174  -5.356  1.00  0.00    -0.388 OA
HETATM   20  C   UNL     1       8.665  -1.435  -4.883  1.00  0.00     0.198 C 
HETATM   21  C   UNL     1       8.408  -1.386  -3.369  1.00  0.00     0.299 C 
ENDBRANCH  15  16
ENDBRANCH   2  15
BRANCH   1  22
HETATM   22  C   UNL     1       4.412  -1.016  -0.705  1.00  0.00     0.157 C 
BRANCH  22  23
HETATM   23  C   UNL     1       3.249  -0.206  -1.273  1.00  0.00     0.187 C 
BRANCH  23  24
HETATM   24  O   UNL     1       2.792   0.736  -0.303  1.00  0.00    -0.394 OA
HETATM   25  C   UNL     1       1.778   1.578  -0.842  1.00  0.00     0.201 C 
ENDBRANCH  23  24
ENDBRANCH  22  23
ENDBRANCH   1  22
TORSDOF 5
