REMARK  5 active torsions:
REMARK  status: ('A' for Active; 'I' for Inactive)
REMARK    1  A    between atoms: C_2  and  C_3 
REMARK       I    between atoms: C_2  and  N_13 
REMARK    2  A    between atoms: C_3  and  N_4 
REMARK    3  A    between atoms: N_4  and  C_5 
REMARK    4  A    between atoms: C_5  and  C_6 
REMARK    5  A    between atoms: C_6  and  N_7 
ROOT
HETATM    1  O   UNL     1       2.807   0.824  -0.615  1.00  0.00    -0.271 OA
HETATM    2  C   UNL     1       2.338  -0.172  -0.067  1.00  0.00     0.248 C 
HETATM    3  N   UNL     1       3.086  -1.072   0.717  1.00  0.00    -0.346 N 
HETATM    4  C   UNL     1       2.526  -2.342   1.205  1.00  0.00     0.126 C 
HETATM    5  C   UNL     1       3.309  -3.527   0.655  1.00  0.00     0.020 C 
HETATM    6  C   UNL     1       4.778  -3.414   1.032  1.00  0.00     0.008 C 
HETATM    7  C   UNL     1       5.364  -2.069   0.572  1.00  0.00     0.009 C 
HETATM    8  C   UNL     1       6.824  -1.972   1.035  1.00  0.00     0.007 C 
HETATM    9  C   UNL     1       7.446  -0.632   0.670  1.00  0.00     0.001 C 
HETATM   10  C   UNL     1       6.623   0.522   1.231  1.00  0.00     0.002 C 
HETATM   11  C   UNL     1       5.174   0.462   0.742  1.00  0.00     0.026 C 
HETATM   12  C   UNL     1       4.511  -0.879   1.090  1.00  0.00     0.091 C 
ENDROOT
BRANCH   2  13
HETATM   13  C   UNL     1       0.848  -0.530  -0.199  1.00  0.00     0.372 C 
BRANCH  13  14
HETATM   14  N   UNL     1       0.010   0.528  -0.794  1.00  0.00     0.093 N 
HETATM   15  H   UNL     1       0.394   0.756  -1.714  1.00  0.00     0.316 HD
BRANCH  14  16
HETATM   16  C   UNL     1      -1.389   0.063  -0.918  1.00  0.00     0.291 C 
BRANCH  16  17
HETATM   17  C   UNL     1      -2.072  -0.143   0.442  1.00  0.00     0.178 C 
BRANCH  17  18
HETATM   18  N   UNL     1      -3.436  -0.616   0.330  1.00  0.00    -0.302 N 
HETATM   19  C   UNL     1      -4.568   0.147   0.348  1.00  0.00     0.111 A 
HETATM   20  C   UNL     1      -5.620  -0.736   0.395  1.00  0.00     0.037 A 
HETATM   21  C   UNL     1      -5.019  -2.008   0.403  1.00  0.00     0.108 A 
HETATM   22  N   UNL     1      -3.687  -1.941   0.350  1.00  0.00    -0.310 N 
ATOM     23  HN  UNL     1      -3.017  -2.710   0.329  1.00  0.00     0.186 HD
ENDBRANCH  17  18
ENDBRANCH  16  17
ENDBRANCH  14  16
ENDBRANCH  13  14
ENDBRANCH   2  13
TORSDOF 5
