REMARK  5 active torsions:
REMARK  status: ('A' for Active; 'I' for Inactive)
REMARK    1  A    between atoms: S_2  and  C_3 
REMARK    2  A    between atoms: C_3  and  C_5 
REMARK       I    between atoms: C_5  and  N_7 
REMARK    3  A    between atoms: N_7  and  C_8 
REMARK    4  A    between atoms: C_8  and  C_9 
REMARK    5  A    between atoms: C_14  and  N_16 
ROOT
HETATM    1  C   UNL     1       7.403  -2.942   3.439  1.00  0.00    -0.036 A 
HETATM    2  C   UNL     1       8.174  -2.563   4.531  1.00  0.00     0.026 A 
HETATM    3  C   UNL     1       8.542  -3.543   5.429  1.00  0.00     0.090 A 
HETATM    4  N   UNL     1       8.202  -4.845   5.305  1.00  0.00    -0.352 N 
ATOM      5  HN  UNL     1       8.507  -5.525   6.001  1.00  0.00     0.166 HD
HETATM    6  C   UNL     1       7.454  -5.238   4.250  1.00  0.00     0.103 A 
HETATM    7  C   UNL     1       7.032  -4.289   3.317  1.00  0.00     0.057 A 
ENDROOT
BRANCH   1   8
HETATM    8  C   UNL     1       6.987  -1.942   2.401  1.00  0.00     0.161 C 
BRANCH   8   9
HETATM    9  N   UNL     1       5.723  -1.330   2.725  1.00  0.00    -0.356 N 
HETATM   10  C   UNL     1       5.201  -0.356   1.898  1.00  0.00     0.231 C 
HETATM   11  O   UNL     1       5.734  -0.041   0.837  1.00  0.00    -0.272 OA
HETATM   12  H   UNL     1       5.374  -1.387   3.676  1.00  0.00     0.162 HD
BRANCH  10  13
HETATM   13  C   UNL     1       3.893   0.264   2.395  1.00  0.00     0.134 C 
HETATM   14  C   UNL     1       3.294   1.227   1.376  1.00  0.00     0.031 C 
BRANCH  13  15
HETATM   15  S   UNL     1       4.137   1.063   4.036  1.00  0.00    -0.160 SA
HETATM   16  C   UNL     1       5.364   2.330   3.614  1.00  0.00     0.090 C 
ENDBRANCH  13  15
ENDBRANCH  10  13
ENDBRANCH   8   9
ENDBRANCH   1   8
BRANCH   6  17
HETATM   17  N   UNL     1       7.234  -6.592   4.064  1.00  0.00    -0.363 N 
HETATM   18  C   UNL     1       7.718  -7.509   5.113  1.00  0.00     0.150 C 
HETATM   19  C   UNL     1       7.977  -8.892   4.488  1.00  0.00     0.187 C 
HETATM   20  O   UNL     1       6.815  -9.404   3.813  1.00  0.00    -0.388 OA
HETATM   21  C   UNL     1       6.399  -8.494   2.780  1.00  0.00     0.187 C 
HETATM   22  C   UNL     1       6.058  -7.111   3.354  1.00  0.00     0.150 C 
ENDBRANCH   6  17
TORSDOF 5
