REMARK  6 active torsions:
REMARK  status: ('A' for Active; 'I' for Inactive)
REMARK    1  A    between atoms: C_2  and  N_4 
REMARK    2  A    between atoms: N_4  and  C_6 
REMARK    3  A    between atoms: C_6  and  C_7 
REMARK    4  A    between atoms: C_7  and  N_8 
REMARK       I    between atoms: N_8  and  C_9 
REMARK    5  A    between atoms: C_9  and  C_11 
REMARK    6  A    between atoms: C_17  and  N_18 
ROOT
HETATM    1  C   UNL     1       8.611  -2.572  -3.015  1.00  0.00     0.075 A 
HETATM    2  C   UNL     1       8.965  -3.070  -1.743  1.00  0.00     0.022 A 
HETATM    3  C   UNL     1      10.268  -3.450  -1.458  1.00  0.00     0.018 A 
HETATM    4  C   UNL     1      11.184  -3.335  -2.469  1.00  0.00     0.089 A 
HETATM    5  N   UNL     1      10.880  -2.857  -3.693  1.00  0.00    -0.352 N 
ATOM      6  HN  UNL     1      11.611  -2.792  -4.402  1.00  0.00     0.166 HD
HETATM    7  C   UNL     1       9.609  -2.459  -3.999  1.00  0.00     0.119 A 
ENDROOT
BRANCH   1   8
HETATM    8  C   UNL     1       7.157  -2.320  -3.243  1.00  0.00     0.255 C 
HETATM    9  N   UNL     1       6.488  -1.646  -2.237  1.00  0.00    -0.355 N 
HETATM   10  H   UNL     1       6.987  -1.340  -1.413  1.00  0.00     0.162 HD
HETATM   11  O   UNL     1       6.582  -2.741  -4.240  1.00  0.00    -0.268 OA
BRANCH   9  12
HETATM   12  C   UNL     1       5.054  -1.408  -2.287  1.00  0.00     0.153 C 
BRANCH  12  13
HETATM   13  C   UNL     1       4.149  -2.635  -1.995  1.00  0.00     0.292 C 
BRANCH  13  14
HETATM   14  N   UNL     1       4.211  -3.285  -0.660  1.00  0.00     0.089 N 
HETATM   15  C   UNL     1       3.791  -2.348   0.384  1.00  0.00     0.310 C 
BRANCH  14  16
HETATM   16  C   UNL     1       5.490  -3.960  -0.364  1.00  0.00     0.214 C 
HETATM   17  C   UNL     1       5.511  -4.694   0.988  1.00  0.00     0.042 C 
HETATM   18  C   UNL     1       5.874  -4.999  -1.431  1.00  0.00     0.042 C 
ENDBRANCH  14  16
ENDBRANCH  13  14
ENDBRANCH  12  13
ENDBRANCH   9  12
ENDBRANCH   1   8
BRANCH   7  19
HETATM   19  N   UNL     1       9.502  -1.875  -5.244  1.00  0.00    -0.362 N 
HETATM   20  C   UNL     1      10.320  -2.457  -6.328  1.00  0.00     0.150 C 
HETATM   21  C   UNL     1      10.683  -1.365  -7.347  1.00  0.00     0.187 C 
HETATM   22  O   UNL     1       9.515  -0.704  -7.858  1.00  0.00    -0.388 OA
HETATM   23  C   UNL     1       8.788  -0.095  -6.780  1.00  0.00     0.187 C 
HETATM   24  C   UNL     1       8.339  -1.130  -5.734  1.00  0.00     0.150 C 
ENDBRANCH   7  19
TORSDOF 6
