REMARK  3 active torsions:
REMARK  status: ('A' for Active; 'I' for Inactive)
REMARK    1  A    between atoms: C_2  and  C_3 
REMARK       I    between atoms: C_2  and  N_12 
REMARK    2  A    between atoms: C_3  and  N_4 
REMARK    3  A    between atoms: N_12  and  C_13 
ROOT
HETATM    1  O   UNL     1       2.663   1.070  -0.375  1.00  0.00    -0.272 OA
HETATM    2  C   UNL     1       2.189   0.131   0.258  1.00  0.00     0.236 C 
HETATM    3  N   UNL     1       2.951  -0.827   0.896  1.00  0.00    -0.355 N 
HETATM    4  H   UNL     1       2.486  -1.333   1.639  1.00  0.00     0.162 HD
ENDROOT
BRANCH   2   5
HETATM    5  C   UNL     1       0.678  -0.102   0.398  1.00  0.00     0.235 C 
BRANCH   5   6
HETATM    6  N   UNL     1       0.017   1.066   0.971  1.00  0.00    -0.301 N 
HETATM    7  C   UNL     1      -0.577   1.999   0.148  1.00  0.00     0.102 A 
HETATM    8  C   UNL     1      -1.147   3.102   0.635  1.00  0.00     0.092 A 
HETATM    9  C   UNL     1      -1.127   3.329   2.091  1.00  0.00     0.250 A 
HETATM   10  O   UNL     1      -1.575   4.360   2.576  1.00  0.00    -0.268 OA
HETATM   11  N   UNL     1      -0.577   2.330   2.840  1.00  0.00    -0.275 N 
HETATM   12  C   UNL     1       0.048   1.213   2.351  1.00  0.00     0.329 A 
HETATM   13  H   UNL     1      -0.541   2.472   3.836  1.00  0.00     0.173 HD
HETATM   14  O   UNL     1       0.595   0.411   3.107  1.00  0.00    -0.246 OA
ENDBRANCH   5   6
ENDBRANCH   2   5
BRANCH   3  15
HETATM   15  C   UNL     1       4.412  -0.772   0.964  1.00  0.00     0.084 C 
HETATM   16  C   UNL     1       4.987  -2.187   1.112  1.00  0.00     0.025 C 
HETATM   17  C   UNL     1       4.606  -2.824   2.449  1.00  0.00     0.002 C 
HETATM   18  C   UNL     1       5.011  -1.945   3.631  1.00  0.00     0.000 C 
HETATM   19  C   UNL     1       4.531  -0.501   3.491  1.00  0.00     0.002 C 
HETATM   20  C   UNL     1       4.887   0.106   2.131  1.00  0.00     0.025 C 
ENDBRANCH   3  15
TORSDOF 3
