REMARK  4 active torsions:
REMARK  status: ('A' for Active; 'I' for Inactive)
REMARK    1  A    between atoms: N_11  and  C_12 
REMARK    2  A    between atoms: C_12  and  C_13 
REMARK    3  A    between atoms: C_13  and  O_14 
REMARK    4  A    between atoms: C_13  and  C_15 
ROOT
HETATM    1  C   UNL     1       3.594  -0.997  -2.503  1.00  0.00     0.089 C 
HETATM    2  C   UNL     1       3.743  -0.388  -1.157  1.00  0.00     0.080 A 
HETATM    3  N   UNL     1       4.151   0.844  -0.931  1.00  0.00    -0.344 N 
ATOM      4  HN  UNL     1       4.420   1.539  -1.627  1.00  0.00     0.167 HD
HETATM    5  C   UNL     1       4.140   1.000   0.430  1.00  0.00     0.060 A 
HETATM    6  C   UNL     1       4.478   2.126   1.197  1.00  0.00     0.032 A 
HETATM    7  C   UNL     1       4.388   2.046   2.591  1.00  0.00     0.002 A 
HETATM    8  C   UNL     1       3.970   0.867   3.209  1.00  0.00     0.002 A 
HETATM    9  C   UNL     1       3.624  -0.265   2.459  1.00  0.00     0.032 A 
HETATM   10  C   UNL     1       3.718  -0.165   1.064  1.00  0.00     0.062 A 
HETATM   11  N   UNL     1       3.461  -1.037   0.027  1.00  0.00    -0.332 N 
ENDROOT
BRANCH  11  12
HETATM   12  C   UNL     1       2.897  -2.372   0.160  1.00  0.00     0.167 C 
BRANCH  12  13
HETATM   13  C   UNL     1       3.957  -3.487   0.193  1.00  0.00     0.169 C 
BRANCH  13  14
HETATM   14  O   UNL     1       4.743  -3.409   1.383  1.00  0.00    -0.389 OA
HETATM   15  H   UNL     1       4.156  -3.538   2.146  1.00  0.00     0.210 HD
ENDBRANCH  13  14
BRANCH  13  16
HETATM   16  C   UNL     1       3.407  -4.903   0.111  1.00  0.00    -0.028 A 
HETATM   17  C   UNL     1       4.230  -5.917  -0.417  1.00  0.00     0.013 A 
HETATM   18  C   UNL     1       3.782  -7.237  -0.504  1.00  0.00     0.043 A 
HETATM   19  C   UNL     1       2.511  -7.559  -0.053  1.00  0.00     0.116 A 
HETATM   20  F   UNL     1       2.077  -8.823  -0.136  1.00  0.00    -0.206 F 
HETATM   21  C   UNL     1       1.683  -6.585   0.491  1.00  0.00     0.043 A 
HETATM   22  C   UNL     1       2.130  -5.262   0.579  1.00  0.00     0.013 A 
ENDBRANCH  13  16
ENDBRANCH  12  13
ENDBRANCH  11  12
TORSDOF 4
