REMARK  6 active torsions:
REMARK  status: ('A' for Active; 'I' for Inactive)
REMARK    1  A    between atoms: N_1  and  C_2 
REMARK    2  A    between atoms: N_9  and  C_10 
REMARK    3  A    between atoms: C_10  and  C_11 
REMARK    4  A    between atoms: C_11  and  O_12 
REMARK    5  A    between atoms: O_12  and  C_13 
REMARK    6  A    between atoms: C_13  and  C_14 
ROOT
HETATM    1  C   UNL     1       2.409   0.021   0.027  1.00  0.00     0.109 A 
HETATM    2  N   UNL     1       3.070   1.200  -0.021  1.00  0.00    -0.341 N 
ATOM      3  HN  UNL     1       2.564   2.085  -0.009  1.00  0.00     0.167 HD
HETATM    4  C   UNL     1       4.420   1.173  -0.085  1.00  0.00     0.183 A 
HETATM    5  N   UNL     1       5.237   0.101  -0.113  1.00  0.00    -0.336 N 
ATOM      6  HN  UNL     1       6.255   0.150  -0.146  1.00  0.00     0.168 HD
HETATM    7  C   UNL     1       4.530  -1.040  -0.091  1.00  0.00     0.140 A 
HETATM    8  N   UNL     1       5.002  -2.324  -0.111  1.00  0.00    -0.325 N 
HETATM    9  C   UNL     1       3.920  -3.163  -0.055  1.00  0.00     0.185 A 
HETATM   10  N   UNL     1       2.782  -2.501  -0.017  1.00  0.00    -0.346 N 
ATOM     11  HN  UNL     1       1.838  -2.885   0.011  1.00  0.00     0.167 HD
HETATM   12  C   UNL     1       3.152  -1.170  -0.024  1.00  0.00     0.116 A 
ENDROOT
BRANCH   8  13
HETATM   13  C   UNL     1       6.395  -2.721  -0.103  1.00  0.00     0.157 C 
BRANCH  13  14
HETATM   14  C   UNL     1       6.787  -3.627  -1.268  1.00  0.00     0.188 C 
BRANCH  14  15
HETATM   15  O   UNL     1       6.659  -2.926  -2.505  1.00  0.00    -0.381 OA
BRANCH  15  16
HETATM   16  C   UNL     1       7.013  -3.749  -3.629  1.00  0.00     0.285 C 
BRANCH  16  17
HETATM   17  C   UNL     1       6.839  -3.047  -4.980  1.00  0.00     0.408 C 
HETATM   18  F   UNL     1       6.384  -1.782  -4.867  1.00  0.00    -0.169 F 
HETATM   19  F   UNL     1       8.017  -2.999  -5.647  1.00  0.00    -0.169 F 
HETATM   20  F   UNL     1       5.966  -3.728  -5.761  1.00  0.00    -0.169 F 
ENDBRANCH  16  17
ENDBRANCH  15  16
ENDBRANCH  14  15
ENDBRANCH  13  14
ENDBRANCH   8  13
BRANCH   1  21
HETATM   21  N   UNL     1       1.022   0.051   0.113  1.00  0.00    -0.287 NA
HETATM   22  H   UNL     1       0.643   0.925  -0.226  1.00  0.00     0.125 HD
HETATM   23  H   UNL     1       0.585  -0.808  -0.205  1.00  0.00     0.125 HD
ENDBRANCH   1  21
TORSDOF 6
