REMARK  4 active torsions:
REMARK  status: ('A' for Active; 'I' for Inactive)
REMARK    1  A    between atoms: O_1  and  C_2 
REMARK    2  A    between atoms: C_2  and  C_3 
REMARK    3  A    between atoms: C_4  and  N_5 
REMARK       I    between atoms: N_5  and  C_6 
REMARK       I    between atoms: C_6  and  N_8 
REMARK    4  A    between atoms: N_8  and  C_9 
ROOT
HETATM    1  N   UNL     1       3.435   3.257  -0.206  1.00  0.00    -0.337 N 
HETATM    2  C   UNL     1       2.201   3.704  -0.572  1.00  0.00     0.322 C 
HETATM    3  O   UNL     1       1.310   2.964  -0.986  1.00  0.00    -0.247 OA
HETATM    4  N   UNL     1       1.944   5.028  -0.382  1.00  0.00    -0.288 N 
HETATM    5  H   UNL     1       4.158   3.962  -0.093  1.00  0.00     0.164 HD
HETATM    6  H   UNL     1       0.988   5.320  -0.518  1.00  0.00     0.172 HD
ENDROOT
BRANCH   1   7
HETATM    7  C   UNL     1       3.854   1.866  -0.240  1.00  0.00     0.096 C 
HETATM    8  C   UNL     1       3.034   0.973   0.726  1.00  0.00     0.036 C 
HETATM    9  C   UNL     1       4.111   0.435   1.707  1.00  0.00    -0.006 C 
HETATM   10  C   UNL     1       5.061  -0.561   1.025  1.00  0.00     0.005 C 
HETATM   11  C   UNL     1       5.030   1.652   1.840  1.00  0.00     0.012 C 
HETATM   12  C   UNL     1       5.816   0.321   0.021  1.00  0.00     0.007 C 
HETATM   13  C   UNL     1       5.287   1.733   0.332  1.00  0.00     0.009 C 
BRANCH   8  14
HETATM   14  C   UNL     1       2.222  -0.084  -0.015  1.00  0.00     0.171 C 
BRANCH  14  15
HETATM   15  O   UNL     1       1.545  -0.914   0.920  1.00  0.00    -0.400 OA
HETATM   16  H   UNL     1       0.914  -1.450   0.409  1.00  0.00     0.209 HD
ENDBRANCH  14  15
ENDBRANCH   8  14
ENDBRANCH   1   7
BRANCH   4  17
HETATM   17  C   UNL     1       2.865   5.953   0.027  1.00  0.00     0.168 A 
HETATM   18  N   UNL     1       4.160   5.803   0.173  1.00  0.00    -0.279 N 
HETATM   19  N   UNL     1       4.760   6.955   0.635  1.00  0.00    -0.303 N 
ATOM     20  HN  UNL     1       4.662   4.939  -0.031  1.00  0.00     0.189 HD
HETATM   21  C   UNL     1       3.881   7.916   0.822  1.00  0.00     0.160 A 
ATOM     22  HN  UNL     1       5.760   7.050   0.810  1.00  0.00     0.186 HD
HETATM   23  S   UNL     1       2.264   7.499   0.411  1.00  0.00    -0.046 SA
ENDBRANCH   4  17
TORSDOF 4
