REMARK  6 active torsions:
REMARK  status: ('A' for Active; 'I' for Inactive)
REMARK    1  A    between atoms: C_2  and  O_3 
REMARK    2  A    between atoms: C_2  and  C_4 
REMARK    3  A    between atoms: N_13  and  C_14 
REMARK    4  A    between atoms: C_14  and  C_15 
REMARK    5  A    between atoms: C_15  and  O_16 
REMARK    6  A    between atoms: O_16  and  C_17 
ROOT
HETATM    1  C   UNL     1       3.022   0.344  -1.475  1.00  0.00     0.113 A 
HETATM    2  N   UNL     1       3.063   1.536  -2.042  1.00  0.00    -0.342 N 
ATOM      3  HN  UNL     1       2.788   2.423  -1.620  1.00  0.00     0.167 HD
HETATM    4  C   UNL     1       3.546   1.345  -3.305  1.00  0.00     0.060 A 
HETATM    5  C   UNL     1       3.795   2.297  -4.304  1.00  0.00     0.032 A 
HETATM    6  C   UNL     1       4.278   1.861  -5.540  1.00  0.00     0.002 A 
HETATM    7  C   UNL     1       4.501   0.504  -5.776  1.00  0.00     0.002 A 
HETATM    8  C   UNL     1       4.266  -0.460  -4.785  1.00  0.00     0.032 A 
HETATM    9  C   UNL     1       3.790  -0.002  -3.549  1.00  0.00     0.062 A 
HETATM   10  N   UNL     1       3.462  -0.626  -2.360  1.00  0.00    -0.331 N 
ENDROOT
BRANCH  10  11
HETATM   11  C   UNL     1       3.560  -2.054  -2.105  1.00  0.00     0.157 C 
BRANCH  11  12
HETATM   12  C   UNL     1       2.281  -2.787  -2.493  1.00  0.00     0.196 C 
BRANCH  12  13
HETATM   13  O   UNL     1       2.401  -4.188  -2.221  1.00  0.00    -0.350 OA
BRANCH  13  14
HETATM   14  C   UNL     1       1.256  -4.925  -2.416  1.00  0.00     0.068 A 
HETATM   15  C   UNL     1       0.045  -4.426  -2.912  1.00  0.00     0.037 A 
HETATM   16  C   UNL     1      -1.061  -5.263  -3.060  1.00  0.00     0.003 A 
HETATM   17  C   UNL     1      -0.969  -6.609  -2.718  1.00  0.00     0.000 A 
HETATM   18  C   UNL     1       0.232  -7.117  -2.228  1.00  0.00     0.003 A 
HETATM   19  C   UNL     1       1.341  -6.277  -2.077  1.00  0.00     0.037 A 
ENDBRANCH  13  14
ENDBRANCH  12  13
ENDBRANCH  11  12
ENDBRANCH  10  11
BRANCH   1  20
HETATM   20  C   UNL     1       2.593   0.093  -0.059  1.00  0.00     0.181 C 
HETATM   21  C   UNL     1       2.152   1.375   0.640  1.00  0.00     0.047 C 
BRANCH  20  22
HETATM   22  O   UNL     1       1.498  -0.819  -0.084  1.00  0.00    -0.388 OA
HETATM   23  H   UNL     1       0.699  -0.296  -0.274  1.00  0.00     0.210 HD
ENDBRANCH  20  22
ENDBRANCH   1  20
TORSDOF 6
