REMARK  3 active torsions:
REMARK  status: ('A' for Active; 'I' for Inactive)
REMARK    1  A    between atoms: C_2  and  N_3 
REMARK    2  A    between atoms: C_2  and  C_15 
REMARK       I    between atoms: N_3  and  C_4 
REMARK       I    between atoms: C_4  and  N_6 
REMARK    3  A    between atoms: N_6  and  C_7 
ROOT
HETATM    1  N   UNL     1       2.658   0.207   1.542  1.00  0.00    -0.336 N 
HETATM    2  C   UNL     1       2.615   1.477   2.083  1.00  0.00     0.321 C 
HETATM    3  O   UNL     1       2.420   2.483   1.412  1.00  0.00    -0.247 OA
HETATM    4  N   UNL     1       2.718   1.429   3.458  1.00  0.00    -0.305 N 
HETATM    5  H   UNL     1       3.402  -0.370   1.916  1.00  0.00     0.164 HD
HETATM    6  H   UNL     1       2.308   0.595   3.854  1.00  0.00     0.171 HD
ENDROOT
BRANCH   1   7
HETATM    7  C   UNL     1       2.378   0.005   0.117  1.00  0.00     0.111 C 
HETATM    8  C   UNL     1       1.954  -1.451  -0.088  1.00  0.00     0.035 C 
BRANCH   7   9
HETATM    9  C   UNL     1       3.576   0.428  -0.758  1.00  0.00     0.143 C 
HETATM   10  C   UNL     1       3.303   0.451  -2.258  1.00  0.00     0.036 C 
HETATM   11  C   UNL     1       4.589  -0.045  -2.890  1.00  0.00     0.029 C 
HETATM   12  C   UNL     1       5.528  -0.274  -1.722  1.00  0.00     0.168 C 
HETATM   13  O   UNL     1       4.689  -0.471  -0.583  1.00  0.00    -0.384 OA
ENDBRANCH   7   9
ENDBRANCH   1   7
BRANCH   4  14
HETATM   14  C   UNL     1       2.612   2.590   4.215  1.00  0.00     0.092 A 
HETATM   15  C   UNL     1       3.241   3.856   4.070  1.00  0.00     0.058 A 
HETATM   16  C   UNL     1       4.271   4.298   3.101  1.00  0.00     0.072 C 
HETATM   17  N   UNL     1       2.838   4.707   5.025  1.00  0.00    -0.263 N 
HETATM   18  O   UNL     1       1.941   4.005   5.804  1.00  0.00    -0.240 OA
ATOM     19  HN  UNL     1       3.134   5.675   5.150  1.00  0.00     0.194 HD
HETATM   20  C   UNL     1       1.817   2.737   5.329  1.00  0.00     0.101 A 
HETATM   21  C   UNL     1       0.839   1.880   6.023  1.00  0.00     0.081 C 
ENDBRANCH   4  14
TORSDOF 3
