REMARK  7 active torsions:
REMARK  status: ('A' for Active; 'I' for Inactive)
REMARK    1  A    between atoms: C_4  and  C_5 
REMARK    2  A    between atoms: C_5  and  C_6 
REMARK       I    between atoms: C_6  and  N_8 
REMARK    3  A    between atoms: N_8  and  C_9 
REMARK    4  A    between atoms: C_9  and  C_10 
REMARK    5  A    between atoms: C_10  and  C_11 
REMARK    6  A    between atoms: C_11  and  C_12 
REMARK    7  A    between atoms: C_12  and  C_13 
ROOT
HETATM    1  C   UNL     1       5.721   4.593  -2.348  1.00  0.00     0.223 C 
HETATM    2  O   UNL     1       6.609   3.745  -2.417  1.00  0.00    -0.273 OA
HETATM    3  N   UNL     1       5.463   5.305  -1.194  1.00  0.00    -0.361 N 
HETATM    4  H   UNL     1       4.818   6.085  -1.224  1.00  0.00     0.162 HD
ENDROOT
BRANCH   3   5
HETATM    5  C   UNL     1       6.289   5.151  -0.013  1.00  0.00     0.122 C 
BRANCH   5   6
HETATM    6  C   UNL     1       7.496   6.087  -0.017  1.00  0.00     0.020 C 
BRANCH   6   7
HETATM    7  C   UNL     1       7.145   7.578  -0.045  1.00  0.00     0.002 C 
BRANCH   7   8
HETATM    8  C   UNL     1       6.316   8.030   1.160  1.00  0.00     0.005 C 
BRANCH   8   9
HETATM    9  C   UNL     1       5.923   9.503   1.066  1.00  0.00    -0.014 C 
HETATM   10  C   UNL     1       7.102  10.475   1.055  1.00  0.00     0.004 C 
HETATM   11  C   UNL     1       6.546  11.793   1.594  1.00  0.00     0.000 C 
HETATM   12  C   UNL     1       5.138  11.489   2.101  1.00  0.00     0.000 C 
HETATM   13  C   UNL     1       5.103   9.977   2.263  1.00  0.00     0.004 C 
ENDBRANCH   8   9
ENDBRANCH   7   8
ENDBRANCH   6   7
ENDBRANCH   5   6
ENDBRANCH   3   5
BRANCH   1  14
HETATM   14  C   UNL     1       4.799   4.905  -3.510  1.00  0.00     0.161 C 
BRANCH  14  15
HETATM   15  C   UNL     1       5.563   5.312  -4.718  1.00  0.00     0.043 A 
HETATM   16  C   UNL     1       6.563   4.591  -5.413  1.00  0.00     0.061 A 
HETATM   17  C   UNL     1       6.914   5.411  -6.455  1.00  0.00     0.074 A 
HETATM   18  C   UNL     1       7.886   5.308  -7.557  1.00  0.00     0.079 C 
HETATM   19  O   UNL     1       6.169   6.546  -6.401  1.00  0.00    -0.243 OA
HETATM   20  N   UNL     1       5.316   6.488  -5.312  1.00  0.00    -0.265 N 
ATOM     21  HN  UNL     1       4.640   7.194  -5.022  1.00  0.00     0.194 HD
ENDBRANCH  14  15
ENDBRANCH   1  14
TORSDOF 7
