REMARK  4 active torsions:
REMARK  status: ('A' for Active; 'I' for Inactive)
REMARK    1  A    between atoms: C_6  and  N_7 
REMARK       I    between atoms: N_7  and  C_8 
REMARK    2  A    between atoms: C_8  and  C_10 
REMARK    3  A    between atoms: C_10  and  O_11 
REMARK    4  A    between atoms: O_11  and  C_12 
ROOT
HETATM    1  N   UNL     1       4.941  -2.584  -0.168  1.00  0.00    -0.321 N 
HETATM    2  C   UNL     1       4.298  -3.765  -0.489  1.00  0.00     0.246 C 
HETATM    3  O   UNL     1       3.124  -3.865  -0.837  1.00  0.00    -0.271 OA
HETATM    4  H   UNL     1       5.954  -2.604  -0.068  1.00  0.00     0.169 HD
ENDROOT
BRANCH   1   5
HETATM    5  C   UNL     1       4.377  -1.332  -0.031  1.00  0.00     0.103 A 
HETATM    6  C   UNL     1       3.065  -1.076   0.077  1.00  0.00     0.037 A 
HETATM    7  C   UNL     1       2.571   0.265   0.278  1.00  0.00     0.020 A 
HETATM    8  C   UNL     1       3.425   1.286   0.385  1.00  0.00     0.094 A 
HETATM    9  N   UNL     1       4.789   1.091   0.281  1.00  0.00    -0.327 N 
HETATM   10  C   UNL     1       5.688   2.224   0.392  1.00  0.00     0.159 C 
HETATM   11  C   UNL     1       5.345  -0.166   0.032  1.00  0.00     0.274 A 
HETATM   12  O   UNL     1       6.549  -0.371  -0.135  1.00  0.00    -0.266 OA
ENDBRANCH   1   5
BRANCH   2  13
HETATM   13  C   UNL     1       5.211  -4.987  -0.447  1.00  0.00     0.271 C 
BRANCH  13  14
HETATM   14  O   UNL     1       5.690  -5.242   0.869  1.00  0.00    -0.377 OA
BRANCH  14  15
HETATM   15  C   UNL     1       6.434  -6.452   0.948  1.00  0.00     0.122 C 
HETATM   16  C   UNL     1       6.782  -6.778   2.401  1.00  0.00     0.032 C 
HETATM   17  C   UNL     1       8.146  -7.470   2.364  1.00  0.00     0.002 C 
HETATM   18  C   UNL     1       8.593  -7.457   0.906  1.00  0.00     0.002 C 
HETATM   19  C   UNL     1       7.796  -6.331   0.278  1.00  0.00     0.032 C 
ENDBRANCH  14  15
ENDBRANCH  13  14
ENDBRANCH   2  13
TORSDOF 4
