REMARK  2 active torsions:
REMARK  status: ('A' for Active; 'I' for Inactive)
REMARK       I    between atoms: C_2  and  N_3 
REMARK       I    between atoms: C_2  and  N_10 
REMARK    1  A    between atoms: N_3  and  C_4 
REMARK    2  A    between atoms: N_10  and  C_11 
ROOT
HETATM    1  O   UNL     1       2.792   0.769   2.022  1.00  0.00    -0.247 OA
HETATM    2  C   UNL     1       3.075   0.387   0.896  1.00  0.00     0.321 C 
HETATM    3  N   UNL     1       2.861  -0.899   0.446  1.00  0.00    -0.338 N 
HETATM    4  N   UNL     1       3.571   1.166  -0.125  1.00  0.00    -0.301 N 
HETATM    5  H   UNL     1       3.652  -1.248  -0.090  1.00  0.00     0.164 HD
HETATM    6  H   UNL     1       3.327   0.877  -1.060  1.00  0.00     0.171 HD
ENDROOT
BRANCH   3   7
HETATM    7  C   UNL     1       2.135  -1.888   1.246  1.00  0.00     0.087 C 
HETATM    8  C   UNL     1       2.264  -3.279   0.613  1.00  0.00     0.035 C 
HETATM    9  C   UNL     1       1.633  -3.383  -0.771  1.00  0.00     0.076 C 
HETATM   10  S   UNL     1      -0.149  -3.036  -0.743  1.00  0.00    -0.169 SA
HETATM   11  C   UNL     1      -0.119  -1.436   0.114  1.00  0.00     0.076 C 
HETATM   12  C   UNL     1       0.654  -1.506   1.426  1.00  0.00     0.035 C 
ENDBRANCH   3   7
BRANCH   4  13
HETATM   13  C   UNL     1       3.828   2.500   0.075  1.00  0.00     0.108 A 
HETATM   14  C   UNL     1       4.195   3.265   1.159  1.00  0.00     0.142 A 
HETATM   15  N   UNL     1       4.304   4.624   0.898  1.00  0.00    -0.301 N 
HETATM   16  N   UNL     1       4.022   4.904  -0.366  1.00  0.00    -0.060 NA
ATOM     17  HN  UNL     1       4.569   5.321   1.594  1.00  0.00     0.182 HD
HETATM   18  S   UNL     1       3.665   3.537  -1.268  1.00  0.00     0.019 SA
ENDBRANCH   4  13
TORSDOF 2
