REMARK  3 active torsions:
REMARK  status: ('A' for Active; 'I' for Inactive)
REMARK       I    between atoms: C_2  and  N_3 
REMARK       I    between atoms: C_2  and  N_9 
REMARK    1  A    between atoms: N_3  and  C_4 
REMARK    2  A    between atoms: C_4  and  C_5 
REMARK    3  A    between atoms: N_9  and  C_10 
ROOT
HETATM    1  O   UNL     1       0.901  -0.112   0.068  1.00  0.00    -0.247 OA
HETATM    2  C   UNL     1       2.118   0.014   0.103  1.00  0.00     0.320 C 
HETATM    3  N   UNL     1       2.860  -0.330   1.213  1.00  0.00    -0.342 N 
HETATM    4  N   UNL     1       2.909   0.515  -0.906  1.00  0.00    -0.308 N 
HETATM    5  H   UNL     1       3.848  -0.499   1.086  1.00  0.00     0.164 HD
HETATM    6  H   UNL     1       3.816   0.866  -0.633  1.00  0.00     0.170 HD
ENDROOT
BRANCH   3   7
HETATM    7  C   UNL     1       2.220  -0.960   2.354  1.00  0.00     0.129 C 
BRANCH   7   8
HETATM    8  C   UNL     1       2.393  -0.027   3.536  1.00  0.00     0.003 C 
HETATM    9  C   UNL     1       1.677  -0.485   4.835  1.00  0.00     0.006 C 
HETATM   10  C   UNL     1       1.371   0.999   5.111  1.00  0.00     0.001 C 
HETATM   11  C   UNL     1       1.487   1.234   3.591  1.00  0.00     0.006 C 
ENDBRANCH   7   8
ENDBRANCH   3   7
BRANCH   4  12
HETATM   12  C   UNL     1       2.458   0.835  -2.210  1.00  0.00     0.051 A 
HETATM   13  C   UNL     1       1.245   0.392  -2.733  1.00  0.00     0.032 A 
HETATM   14  C   UNL     1       0.857   0.765  -4.018  1.00  0.00     0.019 A 
HETATM   15  C   UNL     1       1.710   1.567  -4.755  1.00  0.00     0.088 A 
HETATM   16  N   UNL     1       2.906   1.998  -4.302  1.00  0.00    -0.373 N 
HETATM   17  C   UNL     1       3.252   1.620  -3.045  1.00  0.00     0.117 A 
ATOM     18  HN  UNL     1       3.519   2.578  -4.875  1.00  0.00     0.164 HD
ENDBRANCH   4  12
TORSDOF 3
