REMARK  7 active torsions:
REMARK  status: ('A' for Active; 'I' for Inactive)
REMARK    1  A    between atoms: C_2  and  C_3 
REMARK    2  A    between atoms: C_3  and  O_5 
REMARK    3  A    between atoms: C_3  and  C_6 
REMARK    4  A    between atoms: C_6  and  N_7 
REMARK    5  A    between atoms: C_12  and  N_13 
REMARK    6  A    between atoms: N_13  and  C_14 
REMARK    7  A    between atoms: C_14  and  C_15 
ROOT
HETATM    1  N   UNL     1       5.010  -1.905  -2.260  1.00  0.00    -0.324 N 
HETATM    2  C   UNL     1       5.533  -1.413  -3.430  1.00  0.00     0.185 A 
HETATM    3  N   UNL     1       5.731  -2.362  -4.322  1.00  0.00    -0.346 N 
ATOM      4  HN  UNL     1       6.112  -2.264  -5.263  1.00  0.00     0.167 HD
HETATM    5  C   UNL     1       5.307  -3.521  -3.699  1.00  0.00     0.122 A 
HETATM    6  C   UNL     1       5.219  -4.855  -4.147  1.00  0.00     0.133 A 
HETATM    7  N   UNL     1       4.800  -5.794  -3.260  1.00  0.00    -0.337 N 
ATOM      8  HN  UNL     1       4.763  -6.779  -3.523  1.00  0.00     0.168 HD
HETATM    9  C   UNL     1       4.433  -5.396  -2.023  1.00  0.00     0.183 A 
HETATM   10  N   UNL     1       4.411  -4.150  -1.523  1.00  0.00    -0.336 N 
ATOM     11  HN  UNL     1       4.079  -3.911  -0.589  1.00  0.00     0.168 HD
HETATM   12  C   UNL     1       4.881  -3.260  -2.409  1.00  0.00     0.140 A 
ENDROOT
BRANCH   6  13
HETATM   13  N   UNL     1       5.498  -5.185  -5.467  1.00  0.00    -0.370 N 
HETATM   14  H   UNL     1       6.023  -4.452  -5.934  1.00  0.00     0.161 HD
BRANCH  13  15
HETATM   15  C   UNL     1       5.919  -6.542  -5.740  1.00  0.00     0.160 C 
BRANCH  15  16
HETATM   16  C   UNL     1       6.104  -6.699  -7.233  1.00  0.00    -0.041 A 
HETATM   17  C   UNL     1       7.354  -7.029  -7.775  1.00  0.00     0.009 A 
HETATM   18  C   UNL     1       7.513  -7.158  -9.156  1.00  0.00     0.001 A 
HETATM   19  C   UNL     1       6.428  -6.958 -10.009  1.00  0.00     0.000 A 
HETATM   20  C   UNL     1       5.180  -6.632  -9.482  1.00  0.00     0.001 A 
HETATM   21  C   UNL     1       5.018  -6.507  -8.103  1.00  0.00     0.009 A 
ENDBRANCH  15  16
ENDBRANCH  13  15
ENDBRANCH   6  13
BRANCH   1  22
HETATM   22  C   UNL     1       4.499  -1.104  -1.162  1.00  0.00     0.168 C 
BRANCH  22  23
HETATM   23  C   UNL     1       5.258  -1.199   0.189  1.00  0.00     0.070 C 
HETATM   24  C   UNL     1       6.746  -0.876   0.020  1.00  0.00     0.047 C 
BRANCH  23  25
HETATM   25  C   UNL     1       4.573  -0.238   1.193  1.00  0.00     0.034 C 
HETATM   26  C   UNL     1       5.097  -0.330   2.623  1.00  0.00     0.008 C 
ENDBRANCH  23  25
BRANCH  23  27
HETATM   27  O   UNL     1       5.113  -2.514   0.723  1.00  0.00    -0.389 OA
HETATM   28  H   UNL     1       5.874  -2.723   1.287  1.00  0.00     0.210 HD
ENDBRANCH  23  27
ENDBRANCH  22  23
ENDBRANCH   1  22
TORSDOF 7
