REMARK  1 active torsions:
REMARK  status: ('A' for Active; 'I' for Inactive)
REMARK    1  A    between atoms: C_8  and  N_9 
ROOT
HETATM    1  N   UNL     3       1.070  -0.387   1.850  1.00  0.00    -0.344 N 
HETATM    2  C   UNL     3       0.470   0.079   2.963  1.00  0.00     0.109 A 
HETATM    3  C   UNL     3       1.326  -0.126   4.023  1.00  0.00     0.106 A 
HETATM    4  N   UNL     3       2.453  -0.717   3.577  1.00  0.00    -0.361 N 
ATOM      5  HN  UNL     3       3.268  -0.994   4.124  1.00  0.00     0.166 HD
HETATM    6  C   UNL     3       2.266  -0.862   2.250  1.00  0.00     0.183 A 
ENDROOT
BRANCH   1   7
HETATM    7  C   UNL     3       0.574  -0.392   0.464  1.00  0.00     0.146 C 
HETATM    8  C   UNL     3      -0.152   0.894   0.105  1.00  0.00     0.296 C 
HETATM    9  N   UNL     3      -1.464   0.271   0.301  1.00  0.00     0.087 N 
HETATM   10  C   UNL     3      -0.795  -1.032   0.352  1.00  0.00     0.296 C 
HETATM   11  H   UNL     3      -2.032   0.348  -0.577  1.00  0.00     0.316 HD
ENDBRANCH   1   7
TORSDOF 1
