REMARK  4 active torsions:
REMARK  status: ('A' for Active; 'I' for Inactive)
REMARK    1  A    between atoms: C_5  and  C_9 
REMARK       I    between atoms: C_9  and  N_11 
REMARK    2  A    between atoms: N_11  and  C_12 
REMARK    3  A    between atoms: C_12  and  C_13 
REMARK    4  A    between atoms: C_13  and  C_14 
ROOT
HETATM    1  C   UNL     1       6.073  -0.126   0.248  1.00  0.00     0.222 C 
HETATM    2  O   UNL     1       5.914  -0.972   1.122  1.00  0.00    -0.273 OA
HETATM    3  N   UNL     1       6.990   0.902   0.372  1.00  0.00    -0.360 N 
HETATM    4  H   UNL     1       7.281   1.382  -0.469  1.00  0.00     0.162 HD
ENDROOT
BRANCH   3   5
HETATM    5  C   UNL     1       7.863   0.927   1.532  1.00  0.00     0.127 C 
BRANCH   5   6
HETATM    6  C   UNL     1       8.744   2.173   1.586  1.00  0.00     0.059 C 
BRANCH   6   7
HETATM    7  C   UNL     1       9.630   2.159   2.802  1.00  0.00    -0.041 A 
HETATM    8  C   UNL     1      10.890   1.553   2.777  1.00  0.00     0.010 A 
HETATM    9  C   UNL     1      11.663   1.521   3.934  1.00  0.00     0.018 A 
HETATM   10  C   UNL     1      11.149   2.099   5.083  1.00  0.00     0.087 A 
HETATM   11  N   UNL     1       9.938   2.692   5.146  1.00  0.00    -0.375 N 
HETATM   12  C   UNL     1       9.206   2.705   4.009  1.00  0.00     0.094 A 
ATOM     13  HN  UNL     1       9.592   3.110   6.010  1.00  0.00     0.164 HD
ENDBRANCH   6   7
ENDBRANCH   5   6
ENDBRANCH   3   5
BRANCH   1  14
HETATM   14  C   UNL     1       5.270  -0.103  -1.043  1.00  0.00     0.088 C 
HETATM   15  C   UNL     1       4.390   1.140  -1.136  1.00  0.00     0.034 C 
HETATM   16  C   UNL     1       3.267   1.059  -0.115  1.00  0.00     0.126 C 
HETATM   17  N   UNL     1       2.483  -0.150  -0.291  1.00  0.00    -0.356 N 
HETATM   18  C   UNL     1       1.136  -0.167   0.249  1.00  0.00     0.152 C 
HETATM   19  C   UNL     1       3.131  -1.379  -0.401  1.00  0.00     0.220 C 
HETATM   20  C   UNL     1       4.430  -1.370  -1.187  1.00  0.00     0.117 C 
HETATM   21  O   UNL     1       2.615  -2.439  -0.049  1.00  0.00    -0.273 OA
ENDBRANCH   1  14
TORSDOF 4
