REMARK  5 active torsions:
REMARK  status: ('A' for Active; 'I' for Inactive)
REMARK    1  A    between atoms: N_2  and  C_4 
REMARK    2  A    between atoms: C_7  and  N_8 
REMARK       I    between atoms: N_8  and  C_9 
REMARK       I    between atoms: C_9  and  N_11 
REMARK    3  A    between atoms: N_11  and  C_12 
REMARK    4  A    between atoms: C_12  and  C_13 
REMARK    5  A    between atoms: C_13  and  N_14 
ROOT
HETATM    1  N   UNL     1       5.101  -4.880  -0.315  1.00  0.00    -0.308 N 
HETATM    2  C   UNL     1       4.465  -6.104  -0.271  1.00  0.00     0.320 C 
HETATM    3  O   UNL     1       3.254  -6.282  -0.213  1.00  0.00    -0.247 OA
HETATM    4  N   UNL     1       5.339  -7.167  -0.318  1.00  0.00    -0.341 N 
HETATM    5  H   UNL     1       6.000  -4.858  -0.768  1.00  0.00     0.170 HD
HETATM    6  H   UNL     1       6.275  -7.002   0.024  1.00  0.00     0.164 HD
ENDROOT
BRANCH   1   7
HETATM    7  C   UNL     1       4.457  -3.642  -0.065  1.00  0.00     0.051 A 
HETATM    8  C   UNL     1       3.261  -3.545   0.627  1.00  0.00     0.035 A 
HETATM    9  C   UNL     1       2.671  -2.298   0.848  1.00  0.00     0.050 A 
HETATM   10  C   UNL     1       3.279  -1.128   0.400  1.00  0.00     0.102 A 
HETATM   11  N   UNL     1       4.457  -1.212  -0.271  1.00  0.00    -0.350 N 
HETATM   12  C   UNL     1       5.015  -2.439  -0.480  1.00  0.00     0.119 A 
ATOM     13  HN  UNL     1       4.918  -0.369  -0.614  1.00  0.00     0.166 HD
BRANCH  10  14
HETATM   14  N   UNL     1       2.693   0.117   0.612  1.00  0.00    -0.376 N 
HETATM   15  C   UNL     1       3.461   1.272   0.167  1.00  0.00     0.150 C 
HETATM   16  C   UNL     1       1.807   0.293   1.756  1.00  0.00     0.150 C 
ENDBRANCH  10  14
ENDBRANCH   1   7
BRANCH   4  17
HETATM   17  C   UNL     1       4.804  -8.522  -0.171  1.00  0.00     0.144 C 
BRANCH  17  18
HETATM   18  C   UNL     1       4.178  -9.041  -1.473  1.00  0.00     0.145 C 
BRANCH  18  19
HETATM   19  N   UNL     1       3.502 -10.340  -1.391  1.00  0.00    -0.351 N 
HETATM   20  C   UNL     1       2.090 -10.360  -1.005  1.00  0.00     0.126 C 
HETATM   21  C   UNL     1       1.203 -11.075  -2.018  1.00  0.00     0.020 C 
HETATM   22  C   UNL     1       1.140 -12.591  -1.834  1.00  0.00     0.002 C 
HETATM   23  C   UNL     1       2.434 -13.261  -1.381  1.00  0.00     0.009 C 
HETATM   24  C   UNL     1       3.673 -12.717  -2.062  1.00  0.00     0.103 C 
HETATM   25  C   UNL     1       4.288 -11.479  -1.432  1.00  0.00     0.219 C 
HETATM   26  O   UNL     1       5.484 -11.458  -1.138  1.00  0.00    -0.273 OA
ENDBRANCH  18  19
ENDBRANCH  17  18
ENDBRANCH   4  17
TORSDOF 5
