REMARK  7 active torsions:
REMARK  status: ('A' for Active; 'I' for Inactive)
REMARK    1  A    between atoms: C_7  and  O_8 
REMARK    2  A    between atoms: O_8  and  C_9 
REMARK    3  A    between atoms: C_9  and  C_10 
REMARK    4  A    between atoms: C_10  and  N_11 
REMARK    5  A    between atoms: N_11  and  C_12 
REMARK    6  A    between atoms: C_13  and  C_14 
REMARK    7  A    between atoms: C_14  and  N_15 
ROOT
HETATM    1  C   UNL     1       2.844  -5.533   3.267  1.00  0.00     0.132 A 
HETATM    2  C   UNL     1       1.806  -6.001   3.991  1.00  0.00     0.138 A 
HETATM    3  C   UNL     1       2.004  -7.078   4.981  1.00  0.00     0.274 A 
HETATM    4  O   UNL     1       1.055  -7.486   5.648  1.00  0.00    -0.266 OA
HETATM    5  N   UNL     1       3.287  -7.567   5.108  1.00  0.00    -0.269 N 
HETATM    6  C   UNL     1       3.557  -8.598   6.095  1.00  0.00     0.164 C 
HETATM    7  C   UNL     1       4.357  -7.154   4.330  1.00  0.00     0.332 A 
HETATM    8  O   UNL     1       5.469  -7.672   4.442  1.00  0.00    -0.246 OA
HETATM    9  N   UNL     1       4.099  -6.120   3.429  1.00  0.00    -0.288 N 
HETATM   10  C   UNL     1       5.235  -5.653   2.639  1.00  0.00     0.163 C 
ENDROOT
BRANCH   1  11
HETATM   11  N   UNL     1       2.673  -4.494   2.360  1.00  0.00    -0.373 N 
HETATM   12  H   UNL     1       3.351  -4.472   1.603  1.00  0.00     0.161 HD
BRANCH  11  13
HETATM   13  C   UNL     1       2.259  -3.144   2.768  1.00  0.00     0.147 C 
BRANCH  13  14
HETATM   14  C   UNL     1       2.903  -2.078   1.881  1.00  0.00     0.187 C 
BRANCH  14  15
HETATM   15  O   UNL     1       2.420  -2.230   0.544  1.00  0.00    -0.384 OA
BRANCH  15  16
HETATM   16  C   UNL     1       2.949  -1.281  -0.385  1.00  0.00     0.125 C 
HETATM   17  C   UNL     1       2.571   0.176  -0.035  1.00  0.00     0.010 C 
HETATM   18  C   UNL     1       1.068   0.352   0.224  1.00  0.00     0.012 C 
HETATM   19  C   UNL     1       3.079   1.131  -1.121  1.00  0.00     0.007 C 
HETATM   20  C   UNL     1       2.589   0.754  -2.516  1.00  0.00     0.001 C 
HETATM   21  C   UNL     1       2.911  -0.698  -2.857  1.00  0.00     0.002 C 
HETATM   22  C   UNL     1       2.438  -1.669  -1.779  1.00  0.00     0.032 C 
ENDBRANCH  15  16
ENDBRANCH  14  15
ENDBRANCH  13  14
ENDBRANCH  11  13
ENDBRANCH   1  11
BRANCH   2  23
HETATM   23  C   UNL     1       0.395  -5.453   3.853  1.00  0.00    -0.027 C 
BRANCH  23  24
HETATM   24  N   UNL     1      -0.776  -4.998   3.740  1.00  0.00    -0.365 N 
ATOM     25  HN2 UNL     1       0.167  -5.356   3.894  1.00  0.00     0.165 HD
ATOM     26  HN1 UNL     1      -1.723  -4.630   3.647  1.00  0.00     0.165 HD
ENDBRANCH  23  24
ENDBRANCH   2  23
TORSDOF 7
