REMARK  5 active torsions:
REMARK  status: ('A' for Active; 'I' for Inactive)
REMARK    1  A    between atoms: S_2  and  N_5 
REMARK    2  A    between atoms: C_9  and  C_10 
REMARK       I    between atoms: C_10  and  N_12 
REMARK    3  A    between atoms: N_12  and  C_13 
REMARK    4  A    between atoms: C_13  and  C_14 
REMARK    5  A    between atoms: C_14  and  C_15 
ROOT
HETATM    1  C   UNL     1       2.251   2.815   1.461  1.00  0.00     0.241 C 
HETATM    2  O   UNL     1       2.565   3.788   2.145  1.00  0.00    -0.271 OA
HETATM    3  N   UNL     1       1.444   1.805   1.948  1.00  0.00    -0.359 N 
HETATM    4  H   UNL     1       1.444   0.911   1.458  1.00  0.00     0.162 HD
ENDROOT
BRANCH   1   5
HETATM    5  C   UNL     1       2.649   2.664  -0.014  1.00  0.00     0.187 C 
HETATM    6  N   UNL     1       3.899   1.922  -0.298  1.00  0.00    -0.297 N 
HETATM    7  C   UNL     1       5.038   2.863  -0.278  1.00  0.00     0.136 C 
HETATM    8  C   UNL     1       4.420   4.257  -0.328  1.00  0.00     0.023 C 
HETATM    9  C   UNL     1       2.950   4.027  -0.642  1.00  0.00     0.037 C 
BRANCH   6  10
HETATM   10  S   UNL     1       4.085   0.382   0.323  1.00  0.00     0.225 S 
HETATM   11  C   UNL     1       5.246  -0.330  -0.834  1.00  0.00     0.186 C 
HETATM   12  O   UNL     1       2.807  -0.284   0.170  1.00  0.00    -0.206 OA
HETATM   13  O   UNL     1       4.715   0.485   1.618  1.00  0.00    -0.206 OA
ENDBRANCH   6  10
ENDBRANCH   1   5
BRANCH   3  14
HETATM   14  C   UNL     1       0.854   1.879   3.277  1.00  0.00     0.127 C 
BRANCH  14  15
HETATM   15  C   UNL     1      -0.385   2.787   3.305  1.00  0.00     0.059 C 
BRANCH  15  16
HETATM   16  C   UNL     1      -1.010   2.880   4.672  1.00  0.00    -0.041 A 
HETATM   17  C   UNL     1      -0.643   3.881   5.575  1.00  0.00     0.010 A 
HETATM   18  C   UNL     1      -1.241   3.930   6.833  1.00  0.00     0.018 A 
HETATM   19  C   UNL     1      -2.186   2.972   7.149  1.00  0.00     0.087 A 
HETATM   20  N   UNL     1      -2.567   1.989   6.307  1.00  0.00    -0.375 N 
HETATM   21  C   UNL     1      -1.973   1.965   5.092  1.00  0.00     0.094 A 
ATOM     22  HN  UNL     1      -3.268   1.298   6.574  1.00  0.00     0.164 HD
ENDBRANCH  15  16
ENDBRANCH  14  15
ENDBRANCH   3  14
TORSDOF 5
