REMARK  4 active torsions:
REMARK  status: ('A' for Active; 'I' for Inactive)
REMARK    1  A    between atoms: O_1  and  C_2 
REMARK    2  A    between atoms: C_2  and  C_3 
REMARK    3  A    between atoms: C_3  and  C_4 
REMARK    4  A    between atoms: N_9  and  C_10 
ROOT
HETATM    1  C   UNL     1       4.367  -1.173   0.955  1.00  0.00     0.128 C 
HETATM    2  C   UNL     1       5.066  -0.208  -0.034  1.00  0.00     0.193 C 
HETATM    3  O   UNL     1       4.730  -0.497  -1.402  1.00  0.00    -0.387 OA
HETATM    4  C   UNL     1       5.143  -1.829  -1.749  1.00  0.00     0.188 C 
HETATM    5  C   UNL     1       4.472  -2.884  -0.858  1.00  0.00     0.168 C 
HETATM    6  N   UNL     1       4.663  -2.561   0.560  1.00  0.00    -0.209 N 
ENDROOT
BRANCH   6   7
HETATM    7  C   UNL     1       5.493  -3.337   1.334  1.00  0.00     0.680 A 
HETATM    8  N   UNL     1       6.004  -4.466   0.814  1.00  0.00    -0.200 N 
HETATM    9  C   UNL     1       6.742  -5.263   1.618  1.00  0.00     0.131 A 
ATOM     10  HN  UNL     1       5.839  -4.715  -0.161  1.00  0.00     0.183 HD
HETATM   11  C   UNL     1       6.999  -4.982   2.934  1.00  0.00     0.065 A 
HETATM   12 CL   UNL     1       7.913  -6.020   3.935  1.00  0.00    -0.081 Cl
HETATM   13  C   UNL     1       6.456  -3.807   3.384  1.00  0.00     0.131 A 
HETATM   14  N   UNL     1       5.713  -2.980   2.613  1.00  0.00    -0.200 N 
ATOM     15  HN  UNL     1       5.331  -2.112   2.990  1.00  0.00     0.183 HD
ENDBRANCH   6   7
BRANCH   1  16
HETATM   16  C   UNL     1       2.847  -0.943   0.965  1.00  0.00     0.054 C 
BRANCH  16  17
HETATM   17  C   UNL     1       2.137  -1.841   1.967  1.00  0.00     0.166 C 
BRANCH  17  18
HETATM   18  O   UNL     1       0.746  -1.541   1.947  1.00  0.00    -0.401 OA
HETATM   19  H   UNL     1       0.316  -2.162   2.560  1.00  0.00     0.209 HD
ENDBRANCH  17  18
ENDBRANCH  16  17
ENDBRANCH   1  16
TORSDOF 4
