REMARK  4 active torsions:
REMARK  status: ('A' for Active; 'I' for Inactive)
REMARK    1  A    between atoms: C_4  and  N_5 
REMARK       I    between atoms: N_5  and  C_6 
REMARK       I    between atoms: C_6  and  N_8 
REMARK    2  A    between atoms: N_8  and  C_9 
REMARK    3  A    between atoms: C_10  and  C_11 
REMARK    4  A    between atoms: C_11  and  O_12 
ROOT
HETATM    1  N   UNL     1       7.919   2.792  -2.228  1.00  0.00    -0.287 N 
HETATM    2  C   UNL     1       7.544   3.970  -1.626  1.00  0.00     0.322 C 
HETATM    3  O   UNL     1       7.574   5.062  -2.167  1.00  0.00    -0.247 OA
HETATM    4  N   UNL     1       7.070   3.811  -0.336  1.00  0.00    -0.337 N 
HETATM    5  H   UNL     1       8.270   2.034  -1.666  1.00  0.00     0.172 HD
HETATM    6  H   UNL     1       6.738   2.871  -0.153  1.00  0.00     0.164 HD
ENDROOT
BRANCH   4   7
HETATM    7  C   UNL     1       6.232   4.881   0.202  1.00  0.00     0.096 C 
HETATM    8  C   UNL     1       6.860   6.297   0.421  1.00  0.00     0.036 C 
HETATM    9  C   UNL     1       6.268   6.702   1.812  1.00  0.00    -0.006 C 
HETATM   10  C   UNL     1       7.090   6.027   2.912  1.00  0.00     0.005 C 
HETATM   11  C   UNL     1       4.972   5.890   1.901  1.00  0.00     0.012 C 
HETATM   12  C   UNL     1       6.795   4.541   2.672  1.00  0.00     0.007 C 
HETATM   13  C   UNL     1       5.672   4.564   1.607  1.00  0.00     0.009 C 
BRANCH   8  14
HETATM   14  C   UNL     1       6.471   7.333  -0.641  1.00  0.00     0.171 C 
BRANCH  14  15
HETATM   15  O   UNL     1       7.110   8.584  -0.365  1.00  0.00    -0.400 OA
HETATM   16  H   UNL     1       6.565   9.055   0.287  1.00  0.00     0.209 HD
ENDBRANCH  14  15
ENDBRANCH   8  14
ENDBRANCH   4   7
BRANCH   1  17
HETATM   17  C   UNL     1       8.148   2.788  -3.591  1.00  0.00     0.176 A 
HETATM   18  C   UNL     1       8.809   1.912  -4.418  1.00  0.00     0.085 A 
HETATM   19  C   UNL     1       8.690   2.490  -5.709  1.00  0.00     0.033 A 
HETATM   20  C   UNL     1       9.241   2.033  -7.003  1.00  0.00     0.070 C 
HETATM   21  N   UNL     1       7.960   3.608  -5.677  1.00  0.00    -0.264 N 
HETATM   22  O   UNL     1       7.623   3.790  -4.353  1.00  0.00    -0.220 OA
ATOM     23  HN  UNL     1       7.706   4.202  -6.466  1.00  0.00     0.194 HD
ENDBRANCH   1  17
TORSDOF 4
