REMARK  5 active torsions:
REMARK  status: ('A' for Active; 'I' for Inactive)
REMARK       I    between atoms: N_1  and  C_2 
REMARK    1  A    between atoms: C_2  and  C_4 
REMARK    2  A    between atoms: C_6  and  C_7 
REMARK    3  A    between atoms: C_7  and  C_8 
REMARK    4  A    between atoms: C_8  and  O_9 
REMARK    5  A    between atoms: C_10  and  C_14 
ROOT
HETATM    1  C   UNL     1       3.110   0.784   1.074  1.00  0.00     0.100 A 
HETATM    2  C   UNL     1       2.830   2.102   1.056  1.00  0.00     0.032 A 
HETATM    3  C   UNL     1       3.529   3.067   1.902  1.00  0.00    -0.023 A 
HETATM    4  C   UNL     1       4.491   2.622   2.743  1.00  0.00     0.126 A 
HETATM    5  N   UNL     1       4.769   1.262   2.781  1.00  0.00    -0.318 N 
HETATM    6  C   UNL     1       4.163   0.305   2.009  1.00  0.00     0.261 A 
HETATM    7  O   UNL     1       4.491  -0.876   2.092  1.00  0.00    -0.267 OA
HETATM    8  H   UNL     1       5.501   0.925   3.403  1.00  0.00     0.169 HD
ENDROOT
BRANCH   1   9
HETATM    9  C   UNL     1       2.364  -0.110   0.145  1.00  0.00     0.254 C 
HETATM   10  N   UNL     1       2.705  -1.424   0.162  1.00  0.00    -0.366 N 
HETATM   11  H   UNL     1       2.231  -2.063  -0.460  1.00  0.00     0.159 HD
HETATM   12  H   UNL     1       3.428  -1.787   0.782  1.00  0.00     0.159 HD
HETATM   13  O   UNL     1       1.489   0.301  -0.610  1.00  0.00    -0.268 OA
ENDBRANCH   1   9
BRANCH   3  14
HETATM   14  C   UNL     1       3.165   4.531   1.720  1.00  0.00     0.067 C 
BRANCH  14  15
HETATM   15  C   UNL     1       1.722   4.903   2.075  1.00  0.00     0.168 C 
BRANCH  15  16
HETATM   16  O   UNL     1       1.446   4.634   3.443  1.00  0.00    -0.401 OA
HETATM   17  H   UNL     1       1.346   3.671   3.540  1.00  0.00     0.209 HD
ENDBRANCH  15  16
ENDBRANCH  14  15
ENDBRANCH   3  14
BRANCH   4  18
HETATM   18  C   UNL     1       5.338   3.509   3.640  1.00  0.00     0.433 C 
HETATM   19  F   UNL     1       6.261   2.776   4.321  1.00  0.00    -0.165 F 
HETATM   20  F   UNL     1       6.028   4.438   2.932  1.00  0.00    -0.165 F 
HETATM   21  F   UNL     1       4.597   4.162   4.565  1.00  0.00    -0.165 F 
ENDBRANCH   4  18
TORSDOF 5
