REMARK  2 active torsions:
REMARK  status: ('A' for Active; 'I' for Inactive)
REMARK    1  A    between atoms: C_7  and  N_8 
REMARK       I    between atoms: N_8  and  C_9 
REMARK       I    between atoms: C_9  and  N_11 
REMARK    2  A    between atoms: N_11  and  C_12 
ROOT
HETATM    1  N   UNL     1       7.508  -4.391  -0.506  1.00  0.00    -0.307 N 
HETATM    2  C   UNL     1       6.725  -5.414  -1.047  1.00  0.00     0.321 C 
HETATM    3  O   UNL     1       7.144  -6.313  -1.751  1.00  0.00    -0.247 OA
HETATM    4  N   UNL     1       5.400  -5.249  -0.709  1.00  0.00    -0.337 N 
HETATM    5  H   UNL     1       7.251  -4.140   0.443  1.00  0.00     0.170 HD
HETATM    6  H   UNL     1       5.163  -4.285  -0.500  1.00  0.00     0.164 HD
ENDROOT
BRANCH   1   7
HETATM    7  C   UNL     1       8.886  -4.213  -0.832  1.00  0.00     0.061 A 
HETATM    8  C   UNL     1       9.314  -4.332  -2.153  1.00  0.00     0.048 A 
HETATM    9  C   UNL     1      10.651  -4.133  -2.433  1.00  0.00     0.090 A 
HETATM   10  N   UNL     1      11.576  -3.827  -1.501  1.00  0.00    -0.368 N 
HETATM   11  C   UNL     1      11.162  -3.733  -0.208  1.00  0.00     0.029 A 
ATOM     12  HN  UNL     1      12.551  -3.672  -1.756  1.00  0.00     0.165 HD
HETATM   13  C   UNL     1      12.243  -3.423   0.789  1.00  0.00     0.070 C 
HETATM   14  C   UNL     1       9.823  -3.902   0.162  1.00  0.00     0.083 A 
HETATM   15 CL   UNL     1       9.333  -3.818   1.821  1.00  0.00    -0.080 Cl
ENDBRANCH   1   7
BRANCH   4  16
HETATM   16  C   UNL     1       4.301  -6.179  -1.170  1.00  0.00     0.103 C 
HETATM   17  C   UNL     1       4.288  -6.429  -2.748  1.00  0.00     0.041 C 
HETATM   18  C   UNL     1       3.380  -7.274  -3.676  1.00  0.00     0.035 C 
HETATM   19  C   UNL     1       3.465  -5.099  -2.814  1.00  0.00     0.138 C 
HETATM   20  C   UNL     1       2.998  -6.253  -4.750  1.00  0.00     0.168 C 
HETATM   21  O   UNL     1       2.580  -5.138  -3.949  1.00  0.00    -0.385 OA
HETATM   22  C   UNL     1       2.979  -5.452  -1.416  1.00  0.00     0.007 C 
HETATM   23  C   UNL     1       1.722  -6.268  -1.149  1.00  0.00     0.014 C 
HETATM   24  C   UNL     1       2.475  -4.354  -0.512  1.00  0.00     0.014 C 
HETATM   25  C   UNL     1       1.526  -5.401   0.116  1.00  0.00     0.002 C 
ENDBRANCH   4  16
TORSDOF 2
