REMARK  2 active torsions:
REMARK  status: ('A' for Active; 'I' for Inactive)
REMARK       I    between atoms: C_2  and  N_3 
REMARK       I    between atoms: C_2  and  N_11 
REMARK    1  A    between atoms: N_3  and  C_4 
REMARK    2  A    between atoms: N_11  and  C_12 
ROOT
HETATM    1  O   UNL     1       1.554  -1.259  -0.348  1.00  0.00    -0.247 OA
HETATM    2  C   UNL     1       2.577  -0.594  -0.200  1.00  0.00     0.322 C 
HETATM    3  N   UNL     1       2.949   0.413  -1.033  1.00  0.00    -0.338 N 
HETATM    4  N   UNL     1       3.436  -0.888   0.818  1.00  0.00    -0.295 N 
HETATM    5  H   UNL     1       3.851   0.832  -0.821  1.00  0.00     0.164 HD
HETATM    6  H   UNL     1       3.160  -1.704   1.341  1.00  0.00     0.172 HD
ENDROOT
BRANCH   3   7
HETATM    7  C   UNL     1       2.272   0.764  -2.272  1.00  0.00     0.086 C 
HETATM    8  C   UNL     1       2.708  -0.193  -3.394  1.00  0.00     0.025 C 
HETATM    9  C   UNL     1       1.793  -0.126  -4.613  1.00  0.00     0.002 C 
HETATM   10  C   UNL     1       2.139   0.950  -5.637  1.00  0.00     0.000 C 
HETATM   11  C   UNL     1       2.631   2.291  -5.105  1.00  0.00     0.000 C 
HETATM   12  C   UNL     1       1.924   2.784  -3.845  1.00  0.00     0.002 C 
HETATM   13  C   UNL     1       2.555   2.240  -2.566  1.00  0.00     0.025 C 
ENDBRANCH   3   7
BRANCH   4  14
HETATM   14  C   UNL     1       4.609  -0.221   1.190  1.00  0.00     0.108 A 
HETATM   15  C   UNL     1       5.423  -0.816   2.145  1.00  0.00     0.049 A 
HETATM   16  C   UNL     1       6.596  -0.167   2.528  1.00  0.00     0.005 A 
HETATM   17  C   UNL     1       6.906   1.068   1.973  1.00  0.00     0.017 A 
HETATM   18  C   UNL     1       6.036   1.595   1.038  1.00  0.00     0.089 A 
HETATM   19  N   UNL     1       4.915   0.968   0.622  1.00  0.00    -0.352 N 
ATOM     20  HN  UNL     1       4.318   1.377  -0.097  1.00  0.00     0.166 HD
ENDBRANCH   4  14
TORSDOF 2
