REMARK  3 active torsions:
REMARK  status: ('A' for Active; 'I' for Inactive)
REMARK    1  A    between atoms: C_1  and  N_2 
REMARK    2  A    between atoms: C_1  and  C_11 
REMARK    3  A    between atoms: N_2  and  C_3 
ROOT
HETATM    1  N   UNL     1       0.513   1.295   0.598  1.00  0.00    -0.373 N 
HETATM    2  H   UNL     1       1.173   1.815   1.174  1.00  0.00     0.161 HD
ENDROOT
BRANCH   1   3
HETATM    3  C   UNL     1       1.034   0.073  -0.004  1.00  0.00     0.155 C 
BRANCH   3   4
HETATM    4  C   UNL     1       2.579   0.077  -0.030  1.00  0.00     0.167 C 
HETATM    5  C   UNL     1       3.133  -1.191  -0.714  1.00  0.00     0.303 C 
HETATM    6  N   UNL     1       2.890  -2.403   0.083  1.00  0.00     0.087 N 
HETATM    7  C   UNL     1       3.479  -2.209   1.420  1.00  0.00     0.295 C 
HETATM    8  H   UNL     1       3.341  -3.200  -0.366  1.00  0.00     0.316 HD
HETATM    9  C   UNL     1       2.979  -0.926   2.104  1.00  0.00     0.198 C 
HETATM   10  O   UNL     1       3.160   0.234   1.283  1.00  0.00    -0.381 OA
ENDBRANCH   3   4
ENDBRANCH   1   3
BRANCH   1  11
HETATM   11  C   UNL     1      -0.348   2.143  -0.068  1.00  0.00     0.115 A 
HETATM   12  C   UNL     1      -1.282   1.705  -0.996  1.00  0.00     0.051 A 
HETATM   13  C   UNL     1      -2.143   2.619  -1.599  1.00  0.00     0.022 A 
HETATM   14  C   UNL     1      -2.052   3.940  -1.229  1.00  0.00     0.107 A 
HETATM   15  N   UNL     1      -1.157   4.362  -0.320  1.00  0.00    -0.310 N 
HETATM   16  N   UNL     1      -0.304   3.451   0.261  1.00  0.00    -0.286 N 
ATOM     17  HN  UNL     1      -1.110   5.348  -0.063  1.00  0.00     0.186 HD
ATOM     18  HN  UNL     1       0.374   3.771   0.953  1.00  0.00     0.188 HD
ENDBRANCH   1  11
TORSDOF 3
