REMARK  6 active torsions:
REMARK  status: ('A' for Active; 'I' for Inactive)
REMARK    1  A    between atoms: N_3  and  C_15 
REMARK    2  A    between atoms: N_6  and  C_12 
REMARK    3  A    between atoms: C_12  and  C_13 
REMARK    4  A    between atoms: C_13  and  C_14 
REMARK    5  A    between atoms: C_13  and  O_18 
REMARK    6  A    between atoms: C_14  and  O_17 
ROOT
HETATM    1  C   UNL     1       0.450  -0.796   0.109  1.00  0.00     0.147 A 
HETATM    2  C   UNL     1       0.374   0.537   0.458  1.00  0.00     0.147 A 
HETATM    3  N   UNL     1       1.629   1.065   0.168  1.00  0.00    -0.292 N 
HETATM    4  N   UNL     1      -0.733   1.191   0.894  1.00  0.00    -0.336 N 
ATOM      5  HN  UNL     1      -0.716   2.155   1.226  1.00  0.00     0.168 HD
HETATM    6  N   UNL     1      -1.904  -0.840   0.410  1.00  0.00    -0.306 N 
HETATM    7  C   UNL     1      -0.768  -1.585   0.064  1.00  0.00     0.279 A 
HETATM    8  N   UNL     1       1.713  -1.159  -0.251  1.00  0.00    -0.344 N 
ATOM      9  HN  UNL     1       2.048  -2.083  -0.523  1.00  0.00     0.167 HD
HETATM   10  C   UNL     1       2.401  -0.040  -0.167  1.00  0.00     0.191 C 
HETATM   11  C   UNL     1      -1.816   0.476   0.850  1.00  0.00     0.187 A 
HETATM   12  O   UNL     1      -0.826  -2.745  -0.339  1.00  0.00    -0.265 OA
ENDROOT
BRANCH   6  13
HETATM   13  C   UNL     1      -3.209  -1.437   0.187  1.00  0.00     0.168 C 
BRANCH  13  14
HETATM   14  C   UNL     1      -3.871  -1.069  -1.162  1.00  0.00     0.170 C 
BRANCH  14  15
HETATM   15  C   UNL     1      -3.175  -1.538  -2.470  1.00  0.00     0.085 C 
HETATM   16  C   UNL     1      -1.837  -0.861  -2.819  1.00  0.00     0.040 C 
HETATM   17  C   UNL     1      -1.848  -0.584  -4.326  1.00  0.00     0.003 C 
HETATM   18  C   UNL     1      -3.084  -1.273  -4.871  1.00  0.00     0.003 C 
HETATM   19  C   UNL     1      -4.055  -1.244  -3.701  1.00  0.00     0.040 C 
BRANCH  15  20
HETATM   20  O   UNL     1      -3.006  -2.962  -2.401  1.00  0.00    -0.387 OA
HETATM   21  H   UNL     1      -2.202  -3.157  -1.873  1.00  0.00     0.210 HD
ENDBRANCH  15  20
ENDBRANCH  14  15
BRANCH  14  22
HETATM   22  O   UNL     1      -5.184  -1.667  -1.124  1.00  0.00    -0.391 OA
HETATM   23  H   UNL     1      -5.073  -2.577  -1.473  1.00  0.00     0.210 HD
ENDBRANCH  14  22
ENDBRANCH  13  14
ENDBRANCH   6  13
BRANCH   3  24
HETATM   24  C   UNL     1       2.051   2.433   0.118  1.00  0.00     0.042 A 
HETATM   25  C   UNL     1       1.167   3.480   0.415  1.00  0.00     0.030 A 
HETATM   26  C   UNL     1       1.565   4.814   0.279  1.00  0.00     0.002 A 
HETATM   27  C   UNL     1       2.851   5.123  -0.149  1.00  0.00     0.000 A 
HETATM   28  C   UNL     1       3.746   4.097  -0.436  1.00  0.00     0.002 A 
HETATM   29  C   UNL     1       3.351   2.760  -0.303  1.00  0.00     0.030 A 
ENDBRANCH   3  24
TORSDOF 6
