REMARK  7 active torsions:
REMARK  status: ('A' for Active; 'I' for Inactive)
REMARK    1  A    between atoms: C_2  and  C_4 
REMARK    2  A    between atoms: C_4  and  C_5 
REMARK    3  A    between atoms: C_4  and  N_7 
REMARK    4  A    between atoms: C_5  and  O_6 
REMARK    5  A    between atoms: N_7  and  S_8 
REMARK    6  A    between atoms: S_8  and  C_11 
REMARK    7  A    between atoms: C_11  and  C_12 
ROOT
HETATM    1  S   UNL     1       4.986   3.238  -0.774  1.00  0.00     0.215 S 
HETATM    2  O   UNL     1       4.412   3.529  -2.071  1.00  0.00    -0.211 OA
HETATM    3  O   UNL     1       4.725   4.076   0.378  1.00  0.00    -0.211 OA
ENDROOT
BRANCH   1   4
HETATM    4  N   UNL     1       4.426   1.672  -0.387  1.00  0.00    -0.213 NA
HETATM    5  H   UNL     1       4.785   1.026  -1.094  1.00  0.00     0.140 HD
BRANCH   4   6
HETATM    6  C   UNL     1       2.903   1.522  -0.320  1.00  0.00     0.098 C 
BRANCH   6   7
HETATM    7  C   UNL     1       2.545   0.042   0.055  1.00  0.00    -0.002 C 
HETATM    8  C   UNL     1       1.031  -0.228   0.049  1.00  0.00     0.011 C 
HETATM    9  C   UNL     1       3.190  -0.981  -0.893  1.00  0.00     0.011 C 
ENDBRANCH   6   7
BRANCH   6  10
HETATM   10  C   UNL     1       2.262   2.548   0.652  1.00  0.00     0.184 C 
BRANCH  10  11
HETATM   11  O   UNL     1       0.838   2.531   0.631  1.00  0.00    -0.399 OA
HETATM   12  H   UNL     1       0.558   2.922  -0.215  1.00  0.00     0.209 HD
ENDBRANCH  10  11
ENDBRANCH   6  10
ENDBRANCH   4   6
ENDBRANCH   1   4
BRANCH   1  13
HETATM   13  C   UNL     1       6.773   3.056  -0.917  1.00  0.00     0.216 C 
BRANCH  13  14
HETATM   14  C   UNL     1       7.369   4.376  -1.263  1.00  0.00     0.049 A 
HETATM   15  C   UNL     1       7.288   5.600  -0.550  1.00  0.00     0.054 A 
HETATM   16  C   UNL     1       7.913   6.507  -1.361  1.00  0.00     0.169 A 
HETATM   17  O   UNL     1       8.396   5.874  -2.457  1.00  0.00    -0.250 OA
HETATM   18  N   UNL     1       8.073   4.528  -2.394  1.00  0.00    -0.265 N 
ATOM     19  HN  UNL     1       8.320   3.803  -3.068  1.00  0.00     0.194 HD
ENDBRANCH  13  14
ENDBRANCH   1  13
TORSDOF 7
