REMARK  6 active torsions:
REMARK  status: ('A' for Active; 'I' for Inactive)
REMARK    1  A    between atoms: C_2  and  C_4 
REMARK    2  A    between atoms: C_4  and  N_5 
REMARK       I    between atoms: N_5  and  C_6 
REMARK    3  A    between atoms: C_6  and  C_8 
REMARK    4  A    between atoms: C_8  and  C_9 
REMARK    5  A    between atoms: C_9  and  C_10 
REMARK    6  A    between atoms: C_15  and  N_19 
ROOT
HETATM    1  C   UNL     1       8.817  -1.863   3.697  1.00  0.00     0.034 C 
HETATM    2  C   UNL     1       9.613  -0.914   4.221  1.00  0.00     0.034 C 
HETATM    3  C   UNL     1       9.090   0.285   4.982  1.00  0.00     0.069 C 
HETATM    4  N   UNL     1      10.993  -0.930   4.145  1.00  0.00    -0.195 N 
ATOM      5  HN  UNL     1      11.538  -0.124   4.452  1.00  0.00     0.184 HD
HETATM    6  C   UNL     1      11.584  -1.984   3.678  1.00  0.00     0.683 C 
HETATM    7  N   UNL     1      10.860  -3.041   3.214  1.00  0.00    -0.156 N 
HETATM    8  C   UNL     1       9.510  -3.008   3.059  1.00  0.00     0.267 C 
HETATM    9  O   UNL     1       8.922  -3.874   2.419  1.00  0.00    -0.267 OA
HETATM   10  H   UNL     1      11.326  -3.793   2.738  1.00  0.00     0.187 HD
ENDROOT
BRANCH   1  11
HETATM   11  C   UNL     1       7.307  -1.917   3.726  1.00  0.00     0.055 C 
BRANCH  11  12
HETATM   12  C   UNL     1       6.632  -0.823   2.896  1.00  0.00     0.107 C 
BRANCH  12  13
HETATM   13  C   UNL     1       5.123  -0.930   2.971  1.00  0.00     0.217 C 
HETATM   14  N   UNL     1       4.481   0.073   2.272  1.00  0.00    -0.361 N 
HETATM   15  H   UNL     1       5.029   0.810   1.850  1.00  0.00     0.162 HD
HETATM   16  O   UNL     1       4.529  -1.803   3.592  1.00  0.00    -0.274 OA
BRANCH  14  17
HETATM   17  C   UNL     1       3.035   0.179   2.237  1.00  0.00     0.126 C 
BRANCH  17  18
HETATM   18  C   UNL     1       2.464   0.945   3.441  1.00  0.00    -0.005 C 
HETATM   19  C   UNL     1       2.950   2.396   3.471  1.00  0.00     0.011 C 
HETATM   20  C   UNL     1       0.935   0.911   3.397  1.00  0.00     0.011 C 
ENDBRANCH  17  18
ENDBRANCH  14  17
ENDBRANCH  12  13
ENDBRANCH  11  12
ENDBRANCH   1  11
BRANCH   6  21
HETATM   21  N   UNL     1      12.953  -2.091   3.600  1.00  0.00    -0.213 N 
HETATM   22  C   UNL     1      13.701  -3.345   3.744  1.00  0.00     0.167 C 
HETATM   23  C   UNL     1      14.784  -3.191   4.821  1.00  0.00     0.188 C 
HETATM   24  O   UNL     1      15.653  -2.085   4.536  1.00  0.00    -0.388 OA
HETATM   25  C   UNL     1      14.897  -0.862   4.498  1.00  0.00     0.188 C 
HETATM   26  C   UNL     1      13.811  -0.911   3.418  1.00  0.00     0.167 C 
ENDBRANCH   6  21
TORSDOF 6
