REMARK  4 active torsions:
REMARK  status: ('A' for Active; 'I' for Inactive)
REMARK    1  A    between atoms: C_7  and  N_8 
REMARK       I    between atoms: N_8  and  C_9 
REMARK       I    between atoms: C_9  and  N_11 
REMARK    2  A    between atoms: N_11  and  C_12 
REMARK    3  A    between atoms: C_14  and  C_15 
REMARK    4  A    between atoms: C_15  and  O_16 
ROOT
HETATM    1  N   UNL     1       4.183  -7.846  -3.850  1.00  0.00    -0.307 N 
HETATM    2  C   UNL     1       4.156  -7.848  -2.468  1.00  0.00     0.321 C 
HETATM    3  O   UNL     1       3.712  -8.730  -1.747  1.00  0.00    -0.247 OA
HETATM    4  N   UNL     1       4.726  -6.701  -1.957  1.00  0.00    -0.335 N 
HETATM    5  H   UNL     1       4.616  -7.049  -4.298  1.00  0.00     0.170 HD
HETATM    6  H   UNL     1       4.714  -5.900  -2.566  1.00  0.00     0.164 HD
ENDROOT
BRANCH   1   7
HETATM    7  C   UNL     1       3.713  -8.856  -4.735  1.00  0.00     0.061 A 
HETATM    8  C   UNL     1       3.156 -10.044  -4.275  1.00  0.00     0.048 A 
HETATM    9  C   UNL     1       2.735 -10.988  -5.197  1.00  0.00     0.090 A 
HETATM   10  N   UNL     1       2.826 -10.827  -6.531  1.00  0.00    -0.368 N 
HETATM   11  C   UNL     1       3.365  -9.669  -6.990  1.00  0.00     0.029 A 
ATOM     12  HN  UNL     1       2.501 -11.550  -7.174  1.00  0.00     0.165 HD
HETATM   13  C   UNL     1       3.446  -9.556  -8.487  1.00  0.00     0.070 C 
HETATM   14  C   UNL     1       3.818  -8.662  -6.127  1.00  0.00     0.083 A 
HETATM   15 CL   UNL     1       4.496  -7.194  -6.753  1.00  0.00    -0.080 Cl
ENDBRANCH   1   7
BRANCH   4  16
HETATM   16  C   UNL     1       4.693  -6.426  -0.534  1.00  0.00     0.109 C 
HETATM   17  C   UNL     1       5.598  -7.342   0.309  1.00  0.00     0.040 C 
HETATM   18  C   UNL     1       6.393  -6.425   1.258  1.00  0.00     0.034 C 
HETATM   19  C   UNL     1       6.251  -5.077   0.612  1.00  0.00    -0.022 C 
HETATM   20  C   UNL     1       5.303  -5.076  -0.330  1.00  0.00    -0.005 C 
BRANCH  18  21
HETATM   21  C   UNL     1       7.837  -6.898   1.442  1.00  0.00     0.172 C 
BRANCH  21  22
HETATM   22  O   UNL     1       8.540  -6.050   2.348  1.00  0.00    -0.400 OA
HETATM   23  H   UNL     1       8.662  -5.194   1.907  1.00  0.00     0.209 HD
ENDBRANCH  21  22
ENDBRANCH  18  21
ENDBRANCH   4  16
TORSDOF 4
