REMARK  6 active torsions:
REMARK  status: ('A' for Active; 'I' for Inactive)
REMARK    1  A    between atoms: N_1  and  C_8 
REMARK    2  A    between atoms: N_2  and  C_7 
REMARK    3  A    between atoms: C_8  and  C_9 
REMARK       I    between atoms: C_9  and  N_10 
REMARK    4  A    between atoms: N_10  and  C_11 
REMARK    5  A    between atoms: C_11  and  C_17 
REMARK    6  A    between atoms: C_11  and  C_18 
ROOT
HETATM    1  C   UNL     1      -2.771   2.124  -0.090  1.00  0.00     0.236 C 
HETATM    2  N   UNL     1      -3.373   0.913   0.191  1.00  0.00    -0.347 N 
HETATM    3  O   UNL     1      -3.367   3.197  -0.101  1.00  0.00    -0.272 OA
HETATM    4  H   UNL     1      -2.787   0.118   0.400  1.00  0.00     0.163 HD
ENDROOT
BRANCH   1   5
HETATM    5  C   UNL     1      -1.253   2.022  -0.323  1.00  0.00     0.240 C 
BRANCH   5   6
HETATM    6  N   UNL     1      -0.474   2.768   0.663  1.00  0.00    -0.255 N 
HETATM    7  C   UNL     1      -0.656   2.460   2.008  1.00  0.00     0.334 C 
HETATM    8  N   UNL     1      -0.008   3.289   2.922  1.00  0.00    -0.279 N 
HETATM    9  O   UNL     1      -1.343   1.510   2.373  1.00  0.00    -0.246 OA
HETATM   10  C   UNL     1       1.040   4.092   2.525  1.00  0.00     0.146 C 
HETATM   11  C   UNL     1       1.413   4.163   1.251  1.00  0.00     0.200 C 
HETATM   12  C   UNL     1       0.642   3.455   0.210  1.00  0.00     0.292 C 
HETATM   13  F   UNL     1       2.464   4.903   0.851  1.00  0.00    -0.199 F 
HETATM   14  O   UNL     1       1.025   3.457  -0.957  1.00  0.00    -0.264 OA
BRANCH   8  15
HETATM   15  C   UNL     1      -0.594   3.416   4.258  1.00  0.00     0.232 C 
HETATM   16  O   UNL     1      -0.005   4.519   4.979  1.00  0.00    -0.366 OA
HETATM   17  C   UNL     1       0.159   4.138   6.350  1.00  0.00     0.170 C 
HETATM   18  C   UNL     1      -0.634   2.867   6.543  1.00  0.00     0.031 C 
HETATM   19  C   UNL     1      -0.503   2.210   5.186  1.00  0.00     0.056 C 
ENDBRANCH   8  15
ENDBRANCH   5   6
ENDBRANCH   1   5
BRANCH   2  20
HETATM   20  C   UNL     1      -4.776   0.805   0.607  1.00  0.00     0.151 C 
BRANCH  20  21
HETATM   21  C   UNL     1      -5.647   0.827  -0.656  1.00  0.00    -0.031 A 
HETATM   22  C   UNL     1      -5.496  -0.094  -1.704  1.00  0.00     0.009 A 
HETATM   23  C   UNL     1      -6.063   0.149  -2.964  1.00  0.00     0.001 A 
HETATM   24  C   UNL     1      -6.813   1.305  -3.200  1.00  0.00     0.000 A 
HETATM   25  C   UNL     1      -7.013   2.209  -2.166  1.00  0.00     0.001 A 
HETATM   26  C   UNL     1      -6.438   1.974  -0.910  1.00  0.00     0.009 A 
ENDBRANCH  20  21
BRANCH  20  27
HETATM   27  C   UNL     1      -4.902  -0.277   1.697  1.00  0.00    -0.031 A 
HETATM   28  C   UNL     1      -4.017  -0.157   2.800  1.00  0.00     0.009 A 
HETATM   29  C   UNL     1      -4.024  -1.021   3.895  1.00  0.00     0.001 A 
HETATM   30  C   UNL     1      -4.962  -2.035   3.938  1.00  0.00     0.000 A 
HETATM   31  C   UNL     1      -5.863  -2.182   2.887  1.00  0.00     0.001 A 
HETATM   32  C   UNL     1      -5.836  -1.309   1.762  1.00  0.00     0.009 A 
ENDBRANCH  20  27
ENDBRANCH   2  20
TORSDOF 6
