REMARK  3 active torsions:
REMARK  status: ('A' for Active; 'I' for Inactive)
REMARK       I    between atoms: C_2  and  N_4 
REMARK       I    between atoms: N_8  and  C_11 
REMARK       I    between atoms: C_11  and  N_13 
REMARK    1  A    between atoms: N_13  and  C_14 
REMARK    2  A    between atoms: C_14  and  C_15 
REMARK    3  A    between atoms: C_15  and  C_16 
ROOT
HETATM    1  C   UNL     1       1.850  -1.091  -0.688  1.00  0.00     0.117 C 
HETATM    2  C   UNL     1       2.498   0.034   0.080  1.00  0.00     0.215 C 
HETATM    3  O   UNL     1       2.385   1.190  -0.330  1.00  0.00    -0.274 OA
HETATM    4  N   UNL     1       3.160  -0.288   1.260  1.00  0.00    -0.351 N 
HETATM    5  C   UNL     1       3.657   0.806   2.101  1.00  0.00     0.127 C 
HETATM    6  C   UNL     1       2.799   0.965   3.358  1.00  0.00     0.040 C 
HETATM    7  C   UNL     1       3.269   0.089   4.523  1.00  0.00     0.129 C 
HETATM    8  N   UNL     1       3.630  -1.288   4.176  1.00  0.00    -0.333 N 
HETATM    9  C   UNL     1       2.850  -1.948   3.126  1.00  0.00     0.147 C 
HETATM   10  C   UNL     1       3.415  -1.661   1.727  1.00  0.00     0.145 C 
HETATM   11  C   UNL     1       4.764  -1.955   4.616  1.00  0.00     0.318 C 
HETATM   12  O   UNL     1       5.139  -3.017   4.123  1.00  0.00    -0.247 OA
HETATM   13  N   UNL     1       5.462  -1.343   5.620  1.00  0.00    -0.343 N 
HETATM   14  H   UNL     1       4.954  -0.718   6.224  1.00  0.00     0.164 HD
ENDROOT
BRANCH  13  15
HETATM   15  C   UNL     1       6.680  -1.924   6.157  1.00  0.00     0.129 C 
BRANCH  15  16
HETATM   16  C   UNL     1       7.913  -1.672   5.281  1.00  0.00     0.061 C 
BRANCH  16  17
HETATM   17  C   UNL     1       8.281  -0.228   5.195  1.00  0.00    -0.023 A 
HETATM   18  C   UNL     1       7.875   0.705   4.214  1.00  0.00     0.115 A 
HETATM   19  N   UNL     1       8.373   1.926   4.425  1.00  0.00    -0.310 N 
HETATM   20  N   UNL     1       9.127   1.770   5.527  1.00  0.00    -0.308 N 
ATOM     21  HN  UNL     1       8.218   2.774   3.880  1.00  0.00     0.186 HD
HETATM   22  C   UNL     1       9.872   2.888   6.058  1.00  0.00     0.177 C 
HETATM   23  C   UNL     1       9.094   0.505   6.035  1.00  0.00     0.118 A 
ENDBRANCH  16  17
ENDBRANCH  15  16
ENDBRANCH  13  15
TORSDOF 3
