REMARK  4 active torsions:
REMARK  status: ('A' for Active; 'I' for Inactive)
REMARK    1  A    between atoms: C_2  and  N_3 
REMARK       I    between atoms: N_6  and  C_9 
REMARK       I    between atoms: C_9  and  N_11 
REMARK    2  A    between atoms: N_11  and  C_12 
REMARK    3  A    between atoms: C_12  and  C_13 
REMARK    4  A    between atoms: C_13  and  C_14 
ROOT
HETATM    1  N   UNL     1       3.129   0.422   1.279  1.00  0.00     0.091 N 
HETATM    2  C   UNL     1       3.436   1.869   1.334  1.00  0.00     0.292 C 
HETATM    3  C   UNL     1       4.612   2.322   0.444  1.00  0.00     0.158 C 
HETATM    4  N   UNL     1       5.811   1.510   0.683  1.00  0.00    -0.331 N 
HETATM    5  C   UNL     1       5.575   0.064   0.662  1.00  0.00     0.158 C 
HETATM    6  C   UNL     1       4.382  -0.326   1.561  1.00  0.00     0.292 C 
HETATM    7  C   UNL     1       7.081   1.965   0.964  1.00  0.00     0.318 C 
HETATM    8  O   UNL     1       8.018   1.210   1.218  1.00  0.00    -0.247 OA
HETATM    9  N   UNL     1       7.246   3.322   0.975  1.00  0.00    -0.343 N 
HETATM   10  H   UNL     1       6.611   3.890   0.439  1.00  0.00     0.164 HD
ENDROOT
BRANCH   9  11
HETATM   11  C   UNL     1       8.535   3.906   1.292  1.00  0.00     0.130 C 
BRANCH  11  12
HETATM   12  C   UNL     1       8.526   5.433   1.279  1.00  0.00     0.077 C 
BRANCH  12  13
HETATM   13  C   UNL     1       7.628   6.026   2.318  1.00  0.00     0.018 A 
HETATM   14  C   UNL     1       7.973   6.347   3.618  1.00  0.00     0.076 A 
HETATM   15  S   UNL     1       6.629   7.020   4.436  1.00  0.00    -0.087 SA
HETATM   16  C   UNL     1       5.686   6.840   3.011  1.00  0.00     0.046 A 
HETATM   17  C   UNL     1       4.260   7.268   2.992  1.00  0.00     0.076 C 
HETATM   18  N   UNL     1       6.314   6.317   1.978  1.00  0.00    -0.357 N 
ATOM     19  HN  UNL     1       5.896   6.150   1.063  1.00  0.00     0.166 HD
ENDBRANCH  12  13
ENDBRANCH  11  12
ENDBRANCH   9  11
BRANCH   1  20
HETATM   20  C   UNL     1       2.538  -0.016   0.005  1.00  0.00     0.268 C 
HETATM   21  C   UNL     1       1.176   0.606  -0.284  1.00  0.00     0.037 C 
ENDBRANCH   1  20
TORSDOF 4
