REMARK  6 active torsions:
REMARK  status: ('A' for Active; 'I' for Inactive)
REMARK    1  A    between atoms: N_2  and  C_10 
REMARK    2  A    between atoms: C_6  and  N_7 
REMARK    3  A    between atoms: C_9  and  C_10 
REMARK    4  A    between atoms: C_9  and  O_24 
REMARK       I    between atoms: C_17  and  N_18 
REMARK    5  A    between atoms: C_17  and  C_28 
REMARK    6  A    between atoms: N_18  and  C_21 
ROOT
HETATM    1  C   UNL     1       0.363  -0.838  -0.125  1.00  0.00     0.117 A 
HETATM    2  N   UNL     1       1.506   1.022  -0.148  1.00  0.00    -0.324 N 
HETATM    3  C   UNL     1       0.227   0.539  -0.206  1.00  0.00     0.140 A 
HETATM    4  N   UNL     1       1.698  -1.186  -0.057  1.00  0.00    -0.346 N 
ATOM      5  HN  UNL     1       2.091  -2.127  -0.026  1.00  0.00     0.167 HD
HETATM    6  C   UNL     1      -0.826  -1.601  -0.100  1.00  0.00     0.114 A 
HETATM    7  C   UNL     1       2.353  -0.049  -0.041  1.00  0.00     0.185 A 
HETATM    8  N   UNL     1      -0.909   1.245  -0.299  1.00  0.00    -0.336 N 
ATOM      9  HN  UNL     1      -0.956   2.260  -0.392  1.00  0.00     0.168 HD
HETATM   10  N   UNL     1      -2.004  -0.918  -0.148  1.00  0.00    -0.341 N 
ATOM     11  HN  UNL     1      -2.893  -1.417  -0.105  1.00  0.00     0.167 HD
HETATM   12  C   UNL     1      -1.980   0.429  -0.253  1.00  0.00     0.183 A 
ENDROOT
BRANCH   6  13
HETATM   13  N   UNL     1      -0.801  -2.998   0.025  1.00  0.00    -0.265 NA
HETATM   14  C   UNL     1      -1.991  -3.550   0.682  1.00  0.00     0.122 C 
HETATM   15  C   UNL     1      -1.734  -5.044   1.000  1.00  0.00     0.097 C 
HETATM   16  C   UNL     1      -1.313  -5.818  -0.264  1.00  0.00     0.027 C 
HETATM   17  C   UNL     1      -0.186  -5.109  -1.017  1.00  0.00     0.017 C 
HETATM   18  C   UNL     1      -0.512  -3.636  -1.266  1.00  0.00     0.097 C 
BRANCH  15  19
HETATM   19  N   UNL     1      -2.853  -5.683   1.688  1.00  0.00    -0.355 N 
HETATM   20  C   UNL     1      -4.107  -5.779   1.126  1.00  0.00     0.217 C 
HETATM   21  O   UNL     1      -4.377  -5.372   0.002  1.00  0.00    -0.274 OA
HETATM   22  H   UNL     1      -2.718  -5.973   2.648  1.00  0.00     0.162 HD
BRANCH  20  23
HETATM   23  C   UNL     1      -5.123  -6.437   2.033  1.00  0.00     0.098 C 
HETATM   24  C   UNL     1      -6.485  -6.507   1.363  1.00  0.00     0.014 C 
ENDBRANCH  20  23
ENDBRANCH  15  19
ENDBRANCH   6  13
BRANCH   2  25
HETATM   25  C   UNL     1       1.892   2.416  -0.080  1.00  0.00     0.172 C 
BRANCH  25  26
HETATM   26  C   UNL     1       2.122   3.093  -1.440  1.00  0.00     0.102 C 
HETATM   27  C   UNL     1       3.222   2.466  -2.327  1.00  0.00     0.153 C 
HETATM   28  O   UNL     1       3.850   3.552  -3.052  1.00  0.00    -0.383 OA
HETATM   29  C   UNL     1       2.756   1.446  -3.353  1.00  0.00     0.042 C 
HETATM   30  C   UNL     1       3.263   4.783  -2.614  1.00  0.00     0.171 C 
HETATM   31  C   UNL     1       2.689   4.494  -1.246  1.00  0.00     0.068 C 
BRANCH  26  32
HETATM   32  O   UNL     1       0.882   3.259  -2.141  1.00  0.00    -0.385 OA
HETATM   33  H   UNL     1       0.394   2.415  -2.145  1.00  0.00     0.210 HD
ENDBRANCH  26  32
ENDBRANCH  25  26
ENDBRANCH   2  25
TORSDOF 6
