REMARK  7 active torsions:
REMARK  status: ('A' for Active; 'I' for Inactive)
REMARK    1  A    between atoms: N_1  and  C_2 
REMARK    2  A    between atoms: C_6  and  O_19 
REMARK    3  A    between atoms: C_10  and  O_20 
REMARK    4  A    between atoms: C_11  and  C_15 
REMARK    5  A    between atoms: C_12  and  O_14 
REMARK    6  A    between atoms: C_12  and  C_18 
REMARK    7  A    between atoms: O_14  and  C_15 
ROOT
HETATM    1  C   UNL     1      -1.510  -2.505  -0.171  1.00  0.00     0.263 C 
HETATM    2  C   UNL     1      -2.536  -2.681   0.970  1.00  0.00     0.198 C 
HETATM    3  O   UNL     1      -0.726  -3.715  -0.199  1.00  0.00    -0.353 OA
HETATM    4  C   UNL     1      -2.455  -4.157   1.338  1.00  0.00     0.182 C 
HETATM    5  C   UNL     1      -1.633  -4.779   0.209  1.00  0.00     0.180 C 
ENDROOT
BRANCH   1   6
HETATM    6  N   UNL     1      -0.720  -1.275  -0.063  1.00  0.00    -0.279 N 
HETATM    7  C   UNL     1      -1.454  -0.091  -0.049  1.00  0.00     0.331 C 
HETATM    8  N   UNL     1      -0.737   1.064   0.034  1.00  0.00    -0.275 N 
HETATM    9  O   UNL     1      -2.684  -0.052  -0.107  1.00  0.00    -0.246 OA
HETATM   10  C   UNL     1       0.615   1.171  -0.069  1.00  0.00     0.256 C 
HETATM   11  H   UNL     1      -1.260   1.927   0.052  1.00  0.00     0.173 HD
HETATM   12  C   UNL     1       1.357  -0.109  -0.167  1.00  0.00     0.022 C 
HETATM   13  O   UNL     1       1.178   2.260  -0.096  1.00  0.00    -0.267 OA
HETATM   14  C   UNL     1       0.662  -1.255  -0.145  1.00  0.00     0.110 C 
HETATM   15  C   UNL     1       2.842   0.008  -0.314  1.00  0.00     0.056 C 
ENDBRANCH   1   6
BRANCH   2  16
HETATM   16  O   UNL     1      -3.868  -2.362   0.544  1.00  0.00    -0.388 OA
HETATM   17  H   UNL     1      -3.828  -1.436   0.212  1.00  0.00     0.210 HD
ENDBRANCH   2  16
BRANCH   4  18
HETATM   18  O   UNL     1      -3.737  -4.718   1.567  1.00  0.00    -0.390 OA
HETATM   19  H   UNL     1      -4.370  -4.097   1.137  1.00  0.00     0.210 HD
ENDBRANCH   4  18
BRANCH   5  20
HETATM   20  C   UNL     1      -2.431  -5.321  -0.994  1.00  0.00     0.213 C 
BRANCH  20  21
HETATM   21  O   UNL     1      -3.328  -6.381  -0.614  1.00  0.00    -0.315 OA
BRANCH  21  22
HETATM   22  C   UNL     1      -4.650  -6.155  -0.847  1.00  0.00     0.293 C 
HETATM   23  O   UNL     1      -5.111  -5.189  -1.436  1.00  0.00    -0.259 OA
BRANCH  22  24
HETATM   24  C   UNL     1      -5.506  -7.221  -0.255  1.00  0.00     0.039 A 
HETATM   25  C   UNL     1      -6.899  -7.114  -0.403  1.00  0.00     0.017 A 
HETATM   26  C   UNL     1      -7.751  -8.063   0.170  1.00  0.00     0.001 A 
HETATM   27  C   UNL     1      -7.219  -9.128   0.893  1.00  0.00     0.000 A 
HETATM   28  C   UNL     1      -5.835  -9.249   1.039  1.00  0.00     0.001 A 
HETATM   29  C   UNL     1      -4.981  -8.300   0.468  1.00  0.00     0.017 A 
ENDBRANCH  22  24
ENDBRANCH  21  22
ENDBRANCH  20  21
ENDBRANCH   5  20
TORSDOF 7
