REMARK  5 active torsions:
REMARK  status: ('A' for Active; 'I' for Inactive)
REMARK    1  A    between atoms: C_2  and  C_5 
REMARK    2  A    between atoms: C_5  and  C_6 
REMARK       I    between atoms: C_6  and  N_8 
REMARK    3  A    between atoms: N_8  and  C_9 
REMARK    4  A    between atoms: C_9  and  C_10 
REMARK    5  A    between atoms: C_15  and  N_17 
ROOT
HETATM    1  C   UNL     1       6.909  -4.147   0.038  1.00  0.00    -0.036 A 
HETATM    2  C   UNL     1       8.211  -4.499  -0.302  1.00  0.00     0.026 A 
HETATM    3  C   UNL     1       8.519  -5.842  -0.370  1.00  0.00     0.090 A 
HETATM    4  N   UNL     1       7.628  -6.831  -0.140  1.00  0.00    -0.352 N 
ATOM      5  HN  UNL     1       7.909  -7.808  -0.226  1.00  0.00     0.166 HD
HETATM    6  C   UNL     1       6.361  -6.512   0.205  1.00  0.00     0.103 A 
HETATM    7  C   UNL     1       5.986  -5.172   0.296  1.00  0.00     0.057 A 
ENDROOT
BRANCH   1   8
HETATM    8  C   UNL     1       6.480  -2.710   0.060  1.00  0.00     0.161 C 
BRANCH   8   9
HETATM    9  N   UNL     1       5.932  -2.320  -1.220  1.00  0.00    -0.357 N 
HETATM   10  C   UNL     1       5.409  -1.062  -1.400  1.00  0.00     0.226 C 
HETATM   11  O   UNL     1       5.339  -0.232  -0.499  1.00  0.00    -0.273 OA
HETATM   12  H   UNL     1       6.054  -2.953  -2.001  1.00  0.00     0.162 HD
BRANCH  10  13
HETATM   13  C   UNL     1       4.906  -0.771  -2.780  1.00  0.00     0.220 C 
BRANCH  13  14
HETATM   14  C   UNL     1       6.023  -0.261  -3.645  1.00  0.00     0.396 C 
HETATM   15  F   UNL     1       7.204  -0.142  -3.006  1.00  0.00    -0.171 F 
HETATM   16  F   UNL     1       5.716   0.947  -4.169  1.00  0.00    -0.171 F 
HETATM   17  F   UNL     1       6.222  -1.106  -4.686  1.00  0.00    -0.171 F 
ENDBRANCH  13  14
ENDBRANCH  10  13
ENDBRANCH   8   9
ENDBRANCH   1   8
BRANCH   6  18
HETATM   18  N   UNL     1       5.487  -7.539   0.455  1.00  0.00    -0.363 N 
HETATM   19  C   UNL     1       4.254  -7.423   1.234  1.00  0.00     0.150 C 
HETATM   20  C   UNL     1       4.147  -8.604   2.217  1.00  0.00     0.187 C 
HETATM   21  O   UNL     1       4.285  -9.872   1.558  1.00  0.00    -0.388 OA
HETATM   22  C   UNL     1       5.565  -9.951   0.906  1.00  0.00     0.187 C 
HETATM   23  C   UNL     1       5.715  -8.855  -0.156  1.00  0.00     0.150 C 
ENDBRANCH   6  18
TORSDOF 5
