REMARK  5 active torsions:
REMARK  status: ('A' for Active; 'I' for Inactive)
REMARK    1  A    between atoms: N_1  and  C_8 
REMARK    2  A    between atoms: N_2  and  C_7 
REMARK    3  A    between atoms: C_8  and  C_9 
REMARK       I    between atoms: C_9  and  N_10 
REMARK    4  A    between atoms: N_10  and  C_15 
REMARK    5  A    between atoms: C_11  and  C_15 
ROOT
HETATM    1  C   UNL     1      -2.757   2.217  -0.155  1.00  0.00     0.236 C 
HETATM    2  N   UNL     1      -3.453   1.080   0.215  1.00  0.00    -0.351 N 
HETATM    3  O   UNL     1      -3.266   3.329  -0.224  1.00  0.00    -0.272 OA
HETATM    4  H   UNL     1      -2.924   0.287   0.557  1.00  0.00     0.163 HD
ENDROOT
BRANCH   1   5
HETATM    5  C   UNL     1      -1.266   1.972  -0.430  1.00  0.00     0.240 C 
BRANCH   5   6
HETATM    6  N   UNL     1      -0.403   2.609   0.555  1.00  0.00    -0.255 N 
HETATM    7  C   UNL     1      -0.561   2.237   1.892  1.00  0.00     0.334 C 
HETATM    8  N   UNL     1       0.174   2.986   2.810  1.00  0.00    -0.279 N 
HETATM    9  O   UNL     1      -1.304   1.317   2.236  1.00  0.00    -0.246 OA
HETATM   10  C   UNL     1       1.227   3.786   2.413  1.00  0.00     0.146 C 
HETATM   11  C   UNL     1       1.537   3.936   1.130  1.00  0.00     0.200 C 
HETATM   12  C   UNL     1       0.706   3.302   0.088  1.00  0.00     0.292 C 
HETATM   13  F   UNL     1       2.585   4.679   0.726  1.00  0.00    -0.199 F 
HETATM   14  O   UNL     1       1.039   3.363  -1.094  1.00  0.00    -0.264 OA
BRANCH   8  15
HETATM   15  C   UNL     1      -0.265   2.976   4.199  1.00  0.00     0.232 C 
HETATM   16  O   UNL     1      -0.141   4.303   4.753  1.00  0.00    -0.366 OA
HETATM   17  C   UNL     1       0.383   4.194   6.081  1.00  0.00     0.170 C 
HETATM   18  C   UNL     1       0.272   2.736   6.468  1.00  0.00     0.031 C 
HETATM   19  C   UNL     1       0.492   2.048   5.138  1.00  0.00     0.056 C 
ENDBRANCH   8  15
ENDBRANCH   5   6
ENDBRANCH   1   5
BRANCH   2  20
HETATM   20  C   UNL     1      -4.877   1.102   0.527  1.00  0.00     0.113 C 
HETATM   21  C   UNL     1      -5.107   1.269   2.031  1.00  0.00     0.037 C 
BRANCH  20  22
HETATM   22  C   UNL     1      -5.527  -0.111  -0.132  1.00  0.00    -0.035 A 
HETATM   23  C   UNL     1      -5.518  -1.403   0.419  1.00  0.00     0.021 A 
HETATM   24  C   UNL     1      -5.923  -2.529  -0.334  1.00  0.00    -0.025 A 
HETATM   25  C   UNL     1      -6.401  -2.346  -1.650  1.00  0.00    -0.026 A 
HETATM   26  C   UNL     1      -5.818  -3.841   0.166  1.00  0.00     0.012 A 
HETATM   27  C   UNL     1      -6.764  -3.461  -2.422  1.00  0.00     0.012 A 
HETATM   28  C   UNL     1      -6.466  -1.054  -2.181  1.00  0.00     0.013 A 
HETATM   29  C   UNL     1      -6.632  -4.756  -1.920  1.00  0.00     0.001 A 
HETATM   30  C   UNL     1      -6.150  -4.945  -0.627  1.00  0.00     0.001 A 
HETATM   31  C   UNL     1      -6.010   0.038  -1.436  1.00  0.00     0.010 A 
ENDBRANCH  20  22
ENDBRANCH   2  20
TORSDOF 5
