REMARK  5 active torsions:
REMARK  status: ('A' for Active; 'I' for Inactive)
REMARK    1  A    between atoms: C_2  and  C_3 
REMARK    2  A    between atoms: C_2  and  C_13 
REMARK       I    between atoms: C_3  and  N_5 
REMARK    3  A    between atoms: N_5  and  C_6 
REMARK    4  A    between atoms: C_6  and  C_7 
REMARK    5  A    between atoms: C_7  and  C_8 
ROOT
HETATM    1  C   UNL     1       3.606   0.103   0.682  1.00  0.00     0.025 C 
HETATM    2  C   UNL     1       2.318  -0.062  -0.131  1.00  0.00     0.110 C 
ENDROOT
BRANCH   2   3
HETATM    3  C   UNL     1       2.486  -1.328  -0.980  1.00  0.00     0.226 C 
HETATM    4  O   UNL     1       2.638  -1.262  -2.200  1.00  0.00    -0.273 OA
HETATM    5  N   UNL     1       2.500  -2.527  -0.295  1.00  0.00    -0.360 N 
HETATM    6  H   UNL     1       2.497  -2.511   0.718  1.00  0.00     0.162 HD
BRANCH   5   7
HETATM    7  C   UNL     1       2.768  -3.776  -0.984  1.00  0.00     0.123 C 
BRANCH   7   8
HETATM    8  C   UNL     1       2.156  -4.972  -0.256  1.00  0.00     0.024 C 
BRANCH   8   9
HETATM    9  C   UNL     1       2.337  -6.279  -1.036  1.00  0.00    -0.013 C 
HETATM   10  C   UNL     1       1.696  -7.485  -0.339  1.00  0.00     0.005 C 
HETATM   11  C   UNL     1       2.575  -8.692  -0.674  1.00  0.00     0.000 C 
HETATM   12  C   UNL     1       3.684  -8.172  -1.578  1.00  0.00     0.000 C 
HETATM   13  C   UNL     1       3.794  -6.698  -1.226  1.00  0.00     0.005 C 
ENDBRANCH   8   9
ENDBRANCH   7   8
ENDBRANCH   5   7
ENDBRANCH   2   3
BRANCH   2  14
HETATM   14  C   UNL     1       1.038  -0.040   0.686  1.00  0.00     0.002 A 
HETATM   15  C   UNL     1      -0.210  -0.682   0.385  1.00  0.00     0.031 A 
HETATM   16  C   UNL     1      -0.611  -1.500  -0.791  1.00  0.00     0.070 C 
HETATM   17  N   UNL     1      -1.120  -0.474   1.340  1.00  0.00    -0.303 N 
HETATM   18  N   UNL     1      -0.521   0.349   2.205  1.00  0.00    -0.300 N 
ATOM     19  HN  UNL     1      -2.063  -0.858   1.396  1.00  0.00     0.186 HD
HETATM   20  C   UNL     1      -1.249   0.768   3.380  1.00  0.00     0.177 C 
HETATM   21  C   UNL     1       0.750   0.705   1.831  1.00  0.00     0.033 A 
HETATM   22  C   UNL     1       1.539   1.727   2.572  1.00  0.00     0.070 C 
ENDBRANCH   2  14
TORSDOF 5
