REMARK  4 active torsions:
REMARK  status: ('A' for Active; 'I' for Inactive)
REMARK       I    between atoms: C_2  and  N_4 
REMARK    1  A    between atoms: N_7  and  C_8 
REMARK    2  A    between atoms: C_8  and  C_9 
REMARK    3  A    between atoms: C_9  and  N_10 
REMARK       I    between atoms: N_10  and  C_11 
REMARK       I    between atoms: C_11  and  N_13 
REMARK    4  A    between atoms: N_13  and  C_14 
ROOT
HETATM    1  N   UNL     1       6.295  -3.362   4.873  1.00  0.00    -0.346 N 
HETATM    2  C   UNL     1       5.870  -4.558   5.411  1.00  0.00     0.299 C 
HETATM    3  O   UNL     1       5.424  -5.465   4.718  1.00  0.00    -0.254 OA
HETATM    4  N   UNL     1       5.976  -4.572   6.780  1.00  0.00    -0.196 NA
HETATM    5  H   UNL     1       7.054  -2.930   5.380  1.00  0.00     0.163 HD
HETATM    6  H   UNL     1       5.647  -3.714   7.201  1.00  0.00     0.139 HD
ENDROOT
BRANCH   1   7
HETATM    7  C   UNL     1       6.316  -3.226   3.422  1.00  0.00     0.154 C 
BRANCH   7   8
HETATM    8  C   UNL     1       4.905  -3.285   2.787  1.00  0.00     0.292 C 
BRANCH   8   9
HETATM    9  N   UNL     1       4.870  -3.228   1.311  1.00  0.00     0.093 N 
HETATM   10  C   UNL     1       3.458  -3.272   0.841  1.00  0.00     0.292 C 
HETATM   11  C   UNL     1       2.757  -4.646   0.968  1.00  0.00     0.156 C 
HETATM   12  N   UNL     1       3.569  -5.721   0.395  1.00  0.00    -0.349 N 
HETATM   13  C   UNL     1       2.972  -6.678  -0.404  1.00  0.00     0.215 C 
HETATM   14  C   UNL     1       4.964  -5.736   0.845  1.00  0.00     0.156 C 
HETATM   15  C   UNL     1       3.841  -7.802  -0.908  1.00  0.00     0.117 C 
HETATM   16  O   UNL     1       1.782  -6.634  -0.719  1.00  0.00    -0.274 OA
HETATM   17  C   UNL     1       5.603  -4.344   0.669  1.00  0.00     0.292 C 
ENDBRANCH   8   9
ENDBRANCH   7   8
ENDBRANCH   1   7
BRANCH   4  18
HETATM   18  C   UNL     1       5.511  -5.686   7.503  1.00  0.00     0.094 A 
HETATM   19  N   UNL     1       4.606  -5.364   8.453  1.00  0.00    -0.356 N 
HETATM   20  C   UNL     1       3.995  -6.386   9.087  1.00  0.00     0.089 A 
ATOM     21  HN  UNL     1       4.394  -4.392   8.680  1.00  0.00     0.166 HD
HETATM   22  C   UNL     1       4.270  -7.718   8.842  1.00  0.00     0.018 A 
HETATM   23  C   UNL     1       5.266  -8.022   7.922  1.00  0.00     0.011 A 
HETATM   24  C   UNL     1       5.934  -6.995   7.245  1.00  0.00    -0.023 A 
HETATM   25  C   UNL     1       7.089  -7.340   6.349  1.00  0.00     0.052 C 
ENDBRANCH   4  18
TORSDOF 4
