REMARK  6 active torsions:
REMARK  status: ('A' for Active; 'I' for Inactive)
REMARK    1  A    between atoms: C_2  and  C_4 
REMARK    2  A    between atoms: C_4  and  N_5 
REMARK    3  A    between atoms: C_9  and  C_10 
REMARK    4  A    between atoms: C_10  and  N_11 
REMARK       I    between atoms: N_11  and  C_12 
REMARK    5  A    between atoms: C_12  and  C_14 
REMARK    6  A    between atoms: C_14  and  N_15 
ROOT
HETATM    1  N   UNL     1       6.632  -0.308   4.655  1.00  0.00    -0.357 N 
HETATM    2  C   UNL     1       7.285   0.904   4.579  1.00  0.00     0.236 C 
HETATM    3  O   UNL     1       6.695   1.978   4.500  1.00  0.00    -0.272 OA
HETATM    4  H   UNL     1       7.146  -1.163   4.465  1.00  0.00     0.162 HD
ENDROOT
BRANCH   1   5
HETATM    5  C   UNL     1       5.183  -0.420   4.661  1.00  0.00     0.156 C 
BRANCH   5   6
HETATM    6  C   UNL     1       4.630  -1.128   3.416  1.00  0.00     0.167 C 
HETATM    7  O   UNL     1       5.141  -2.478   3.382  1.00  0.00    -0.381 OA
HETATM    8  C   UNL     1       4.637  -3.186   2.238  1.00  0.00     0.198 C 
HETATM    9  C   UNL     1       4.941  -2.445   0.922  1.00  0.00     0.298 C 
HETATM   10  N   UNL     1       4.472  -1.041   0.901  1.00  0.00     0.093 N 
HETATM   11  C   UNL     1       5.001  -0.382   2.118  1.00  0.00     0.305 C 
BRANCH  10  12
HETATM   12  C   UNL     1       3.006  -0.955   0.770  1.00  0.00     0.276 C 
BRANCH  12  13
HETATM   13  C   UNL     1       2.463   0.490   0.677  1.00  0.00     0.006 C 
HETATM   14  C   UNL     1       3.036   1.231  -0.531  1.00  0.00     0.011 C 
HETATM   15  C   UNL     1       0.934   0.482   0.620  1.00  0.00     0.011 C 
ENDBRANCH  12  13
ENDBRANCH  10  12
ENDBRANCH   5   6
ENDBRANCH   1   5
BRANCH   2  16
HETATM   16  C   UNL     1       8.810   0.804   4.642  1.00  0.00     0.235 C 
BRANCH  16  17
HETATM   17  N   UNL     1       9.445   1.445   3.493  1.00  0.00    -0.301 N 
HETATM   18  C   UNL     1       9.739   2.786   3.542  1.00  0.00     0.102 A 
HETATM   19  C   UNL     1      10.362   3.402   2.540  1.00  0.00     0.092 A 
HETATM   20  C   UNL     1      10.750   2.632   1.347  1.00  0.00     0.252 A 
HETATM   21  O   UNL     1      11.394   3.197   0.467  1.00  0.00    -0.268 OA
HETATM   22  N   UNL     1      10.352   1.308   1.321  1.00  0.00    -0.271 N 
HETATM   23  C   UNL     1      10.669   0.511   0.153  1.00  0.00     0.164 C 
HETATM   24  C   UNL     1       9.708   0.661   2.373  1.00  0.00     0.331 A 
HETATM   25  O   UNL     1       9.401  -0.532   2.331  1.00  0.00    -0.246 OA
ENDBRANCH  16  17
ENDBRANCH   2  16
TORSDOF 6
