REMARK  4 active torsions:
REMARK  status: ('A' for Active; 'I' for Inactive)
REMARK    1  A    between atoms: C_2  and  C_3 
REMARK       I    between atoms: C_2  and  N_10 
REMARK    2  A    between atoms: C_3  and  N_4 
REMARK    3  A    between atoms: N_10  and  C_11 
REMARK    4  A    between atoms: C_11  and  C_12 
ROOT
HETATM    1  O   UNL     1       2.809   1.070  -0.106  1.00  0.00    -0.272 OA
HETATM    2  C   UNL     1       2.303  -0.042   0.039  1.00  0.00     0.237 C 
HETATM    3  N   UNL     1       3.056  -1.189   0.211  1.00  0.00    -0.359 N 
HETATM    4  H   UNL     1       2.589  -2.057   0.447  1.00  0.00     0.162 HD
ENDROOT
BRANCH   2   5
HETATM    5  C   UNL     1       0.808  -0.262  -0.016  1.00  0.00     0.250 C 
BRANCH   5   6
HETATM    6  N   UNL     1       0.123   0.336   1.113  1.00  0.00    -0.295 N 
HETATM    7  C   UNL     1      -0.049   1.668   1.363  1.00  0.00     0.112 A 
HETATM    8  C   UNL     1      -0.885   1.751   2.452  1.00  0.00     0.037 A 
HETATM    9  C   UNL     1      -1.173   0.414   2.780  1.00  0.00     0.108 A 
HETATM   10  N   UNL     1      -0.561  -0.453   1.969  1.00  0.00    -0.310 N 
ATOM     11  HN  UNL     1      -0.601  -1.472   1.991  1.00  0.00     0.186 HD
ENDBRANCH   5   6
ENDBRANCH   2   5
BRANCH   3  12
HETATM   12  C   UNL     1       4.507  -1.166   0.250  1.00  0.00     0.129 C 
BRANCH  12  13
HETATM   13  C   UNL     1       5.048  -1.102   1.673  1.00  0.00     0.029 C 
HETATM   14  C   UNL     1       4.734   0.178   2.421  1.00  0.00     0.034 C 
HETATM   15  C   UNL     1       5.873   0.302   3.416  1.00  0.00     0.168 C 
HETATM   16  O   UNL     1       6.909  -0.604   3.011  1.00  0.00    -0.391 OA
HETATM   17  C   UNL     1       6.563  -1.119   1.721  1.00  0.00     0.173 C 
ENDBRANCH  12  13
ENDBRANCH   3  12
TORSDOF 4
