REMARK  6 active torsions:
REMARK  status: ('A' for Active; 'I' for Inactive)
REMARK    1  A    between atoms: C_7  and  C_8 
REMARK    2  A    between atoms: C_8  and  C_9 
REMARK    3  A    between atoms: C_9  and  N_10 
REMARK       I    between atoms: N_10  and  C_11 
REMARK    4  A    between atoms: C_11  and  C_13 
REMARK    5  A    between atoms: C_13  and  C_14 
REMARK    6  A    between atoms: C_13  and  N_17 
ROOT
HETATM    1  N   UNL     1       0.505  -4.055  -1.139  1.00  0.00    -0.359 N 
HETATM    2  C   UNL     1      -0.530  -4.145  -0.223  1.00  0.00     0.251 C 
HETATM    3  O   UNL     1      -0.956  -3.153   0.366  1.00  0.00    -0.271 OA
HETATM    4  H   UNL     1       1.057  -4.884  -1.335  1.00  0.00     0.162 HD
ENDROOT
BRANCH   1   5
HETATM    5  C   UNL     1       1.129  -2.786  -1.480  1.00  0.00     0.130 C 
BRANCH   5   6
HETATM    6  C   UNL     1       2.216  -2.329  -0.494  1.00  0.00     0.096 C 
BRANCH   6   7
HETATM    7  C   UNL     1       3.432  -3.206  -0.524  1.00  0.00     0.084 A 
HETATM    8  N   UNL     1       4.580  -2.948   0.194  1.00  0.00    -0.350 N 
HETATM    9  C   UNL     1       4.818  -1.844   1.092  1.00  0.00     0.156 C 
HETATM   10  C   UNL     1       5.484  -3.934  -0.092  1.00  0.00     0.108 A 
HETATM   11  C   UNL     1       4.842  -4.764  -0.976  1.00  0.00     0.106 A 
HETATM   12  N   UNL     1       3.575  -4.313  -1.231  1.00  0.00    -0.354 N 
ATOM     13  HN  UNL     1       2.882  -4.744  -1.843  1.00  0.00     0.166 HD
ENDBRANCH   6   7
ENDBRANCH   5   6
ENDBRANCH   1   5
BRANCH   2  14
HETATM   14  C   UNL     1      -1.094  -5.591  -0.034  1.00  0.00     0.318 C 
BRANCH  14  15
HETATM   15  C   UNL     1      -0.455  -6.237   1.179  1.00  0.00     0.028 A 
HETATM   16  C   UNL     1       1.024  -6.542   1.249  1.00  0.00     0.008 A 
HETATM   17  C   UNL     1       0.040  -7.665   1.101  1.00  0.00     0.008 A 
ENDBRANCH  14  15
BRANCH  14  18
HETATM   18  N   UNL     1      -2.569  -5.556   0.155  1.00  0.00     0.102 N 
HETATM   19  C   UNL     1      -3.186  -6.866   0.390  1.00  0.00     0.273 C 
HETATM   20  C   UNL     1      -4.611  -6.761  -0.146  1.00  0.00     0.032 C 
HETATM   21  C   UNL     1      -4.726  -5.350  -0.690  1.00  0.00     0.032 C 
HETATM   22  C   UNL     1      -3.287  -4.959  -0.973  1.00  0.00     0.273 C 
ENDBRANCH  14  18
ENDBRANCH   2  14
TORSDOF 6
