REMARK  5 active torsions:
REMARK  status: ('A' for Active; 'I' for Inactive)
REMARK    1  A    between atoms: C_2  and  O_3 
REMARK    2  A    between atoms: O_3  and  C_4 
REMARK    3  A    between atoms: C_6  and  N_7 
REMARK       I    between atoms: N_7  and  C_8 
REMARK    4  A    between atoms: C_8  and  C_10 
REMARK    5  A    between atoms: C_10  and  N_11 
ROOT
HETATM    1  C   UNL     1       4.432  -0.575   0.974  1.00  0.00     0.133 C 
HETATM    2  C   UNL     1       5.102  -1.301  -0.225  1.00  0.00     0.059 C 
HETATM    3  C   UNL     1       5.133   0.064  -0.943  1.00  0.00     0.098 C 
HETATM    4  C   UNL     1       5.177   0.736   0.482  1.00  0.00     0.006 C 
HETATM    5  C   UNL     1       4.331   2.010   0.633  1.00  0.00     0.014 C 
HETATM    6  C   UNL     1       5.073   3.223   0.079  1.00  0.00     0.001 C 
HETATM    7  C   UNL     1       6.421   3.413   0.768  1.00  0.00     0.000 C 
HETATM    8  C   UNL     1       7.280   2.158   0.661  1.00  0.00     0.001 C 
HETATM    9  C   UNL     1       6.547   0.917   1.172  1.00  0.00     0.014 C 
ENDROOT
BRANCH   3  10
HETATM   10  N   UNL     1       6.306   0.265  -1.812  1.00  0.00    -0.354 N 
HETATM   11  C   UNL     1       6.238   1.017  -2.973  1.00  0.00     0.236 C 
HETATM   12  O   UNL     1       5.211   1.555  -3.378  1.00  0.00    -0.272 OA
HETATM   13  H   UNL     1       7.137  -0.312  -1.702  1.00  0.00     0.162 HD
BRANCH  11  14
HETATM   14  C   UNL     1       7.545   1.089  -3.757  1.00  0.00     0.234 C 
BRANCH  14  15
HETATM   15  N   UNL     1       7.603   0.023  -4.751  1.00  0.00    -0.316 N 
HETATM   16  C   UNL     1       7.143   0.255  -6.035  1.00  0.00     0.095 A 
HETATM   17  C   UNL     1       7.194  -0.700  -6.967  1.00  0.00     0.017 A 
HETATM   18  C   UNL     1       7.745  -1.991  -6.647  1.00  0.00     0.007 A 
HETATM   19  C   UNL     1       8.166  -2.260  -5.407  1.00  0.00     0.074 A 
HETATM   20  C   UNL     1       8.083  -1.218  -4.345  1.00  0.00     0.247 A 
HETATM   21  O   UNL     1       8.420  -1.482  -3.191  1.00  0.00    -0.268 OA
ENDBRANCH  14  15
ENDBRANCH  11  14
ENDBRANCH   3  10
BRANCH   1  22
HETATM   22  O   UNL     1       2.981  -0.523   0.960  1.00  0.00    -0.385 OA
BRANCH  22  23
HETATM   23  C   UNL     1       2.291  -1.763   1.087  1.00  0.00     0.163 C 
HETATM   24  C   UNL     1       0.797  -1.499   1.121  1.00  0.00     0.033 C 
ENDBRANCH  22  23
ENDBRANCH   1  22
TORSDOF 5
