REMARK  6 active torsions:
REMARK  status: ('A' for Active; 'I' for Inactive)
REMARK    1  A    between atoms: C_2  and  C_3 
REMARK       I    between atoms: C_2  and  N_19 
REMARK    2  A    between atoms: C_3  and  N_4 
REMARK    3  A    between atoms: C_7  and  C_8 
REMARK    4  A    between atoms: C_8  and  N_9 
REMARK    5  A    between atoms: N_13  and  C_14 
REMARK    6  A    between atoms: N_19  and  C_20 
ROOT
HETATM    1  N   UNL     1       3.138   0.001   2.220  1.00  0.00    -0.256 N 
HETATM    2  C   UNL     1       2.589   0.563   3.367  1.00  0.00     0.273 C 
HETATM    3  O   UNL     1       2.111   1.691   3.419  1.00  0.00    -0.266 OA
HETATM    4  C   UNL     1       2.657  -0.267   4.589  1.00  0.00     0.110 C 
HETATM    5  C   UNL     1       3.188  -1.489   4.516  1.00  0.00     0.123 C 
HETATM    6  N   UNL     1       3.719  -1.988   3.350  1.00  0.00    -0.303 N 
HETATM    7  C   UNL     1       3.821  -1.217   2.189  1.00  0.00     0.332 C 
HETATM    8  O   UNL     1       4.469  -1.581   1.205  1.00  0.00    -0.246 OA
ENDROOT
BRANCH   1   9
HETATM    9  C   UNL     1       3.157   0.793   0.998  1.00  0.00     0.239 C 
BRANCH   9  10
HETATM   10  C   UNL     1       2.343   0.114  -0.108  1.00  0.00     0.236 C 
HETATM   11  O   UNL     1       1.121   0.195  -0.176  1.00  0.00    -0.272 OA
HETATM   12  N   UNL     1       3.110  -0.650  -0.971  1.00  0.00    -0.355 N 
HETATM   13  H   UNL     1       3.984  -1.004  -0.579  1.00  0.00     0.162 HD
BRANCH  12  14
HETATM   14  C   UNL     1       2.530  -1.416  -2.073  1.00  0.00     0.084 C 
HETATM   15  C   UNL     1       2.070  -2.799  -1.584  1.00  0.00     0.025 C 
HETATM   16  C   UNL     1       1.098  -3.464  -2.558  1.00  0.00     0.002 C 
HETATM   17  C   UNL     1       1.736  -4.263  -3.691  1.00  0.00     0.000 C 
HETATM   18  C   UNL     1       3.026  -3.719  -4.297  1.00  0.00     0.000 C 
HETATM   19  C   UNL     1       3.074  -2.205  -4.469  1.00  0.00     0.002 C 
HETATM   20  C   UNL     1       3.553  -1.479  -3.213  1.00  0.00     0.025 C 
ENDBRANCH  12  14
ENDBRANCH   9  10
ENDBRANCH   1   9
BRANCH   4  21
HETATM   21  C   UNL     1       2.127   0.262   5.912  1.00  0.00    -0.030 C 
BRANCH  21  22
HETATM   22  N   UNL     1       1.686   0.700   7.009  1.00  0.00    -0.365 N 
ATOM     23  HN2 UNL     1       1.983   0.316   6.112  1.00  0.00     0.165 HD
ATOM     24  HN1 UNL     1       1.330   1.055   7.897  1.00  0.00     0.165 HD
ENDBRANCH  21  22
ENDBRANCH   4  21
BRANCH   6  25
HETATM   25  C   UNL     1       4.275  -3.322   3.377  1.00  0.00     0.094 A 
HETATM   26  C   UNL     1       3.769  -4.401   2.448  1.00  0.00     0.028 A 
HETATM   27  C   UNL     1       3.497  -4.500   3.916  1.00  0.00     0.028 A 
ENDBRANCH   6  25
TORSDOF 6
