REMARK  7 active torsions:
REMARK  status: ('A' for Active; 'I' for Inactive)
REMARK    1  A    between atoms: C_2  and  C_4 
REMARK    2  A    between atoms: C_2  and  N_18 
REMARK    3  A    between atoms: C_4  and  N_5 
REMARK    4  A    between atoms: N_5  and  C_6 
REMARK    5  A    between atoms: C_6  and  C_7 
REMARK    6  A    between atoms: C_6  and  C_15 
REMARK    7  A    between atoms: C_7  and  C_8 
ROOT
HETATM    1  N   UNL     1       2.578  -2.395   1.047  1.00  0.00     0.091 N 
HETATM    2  H   UNL     1       1.633  -2.348   1.419  1.00  0.00     0.316 HD
ENDROOT
BRANCH   1   3
HETATM    3  C   UNL     1       2.622  -1.588  -0.173  1.00  0.00     0.310 C 
BRANCH   3   4
HETATM    4  C   UNL     1       2.214  -0.073   0.068  1.00  0.00     0.178 C 
HETATM    5  C   UNL     1       0.784  -0.013   0.648  1.00  0.00     0.051 C 
HETATM    6  C   UNL     1       3.166   0.487   1.166  1.00  0.00     0.051 C 
BRANCH   4   7
HETATM    7  N   UNL     1       2.419   0.725  -1.177  1.00  0.00     0.103 N 
HETATM    8  C   UNL     1       2.099   2.166  -1.133  1.00  0.00     0.299 C 
HETATM    9  C   UNL     1       0.637   2.515  -1.472  1.00  0.00     0.198 C 
HETATM   10  O   UNL     1       0.236   1.961  -2.730  1.00  0.00    -0.388 OA
HETATM   11  C   UNL     1       0.440   0.544  -2.753  1.00  0.00     0.198 C 
HETATM   12  C   UNL     1       1.903   0.185  -2.450  1.00  0.00     0.299 C 
ENDBRANCH   4   7
ENDBRANCH   3   4
ENDBRANCH   1   3
BRANCH   1  13
HETATM   13  C   UNL     1       2.893  -3.827   0.900  1.00  0.00     0.230 C 
BRANCH  13  14
HETATM   14  C   UNL     1       4.314  -4.069   0.341  1.00  0.00     0.092 C 
BRANCH  14  15
HETATM   15  C   UNL     1       4.629  -5.496  -0.055  1.00  0.00     0.011 A 
HETATM   16  C   UNL     1       5.939  -5.962   0.058  1.00  0.00     0.025 A 
HETATM   17  C   UNL     1       6.257  -7.221  -0.448  1.00  0.00     0.003 A 
HETATM   18  C   UNL     1       5.266  -7.980  -1.055  1.00  0.00     0.017 A 
HETATM   19  C   UNL     1       3.992  -7.449  -1.126  1.00  0.00     0.088 A 
HETATM   20  N   UNL     1       3.655  -6.227  -0.651  1.00  0.00    -0.369 N 
ATOM     21  HN  UNL     1       2.704  -5.869  -0.738  1.00  0.00     0.165 HD
ENDBRANCH  14  15
ENDBRANCH  13  14
BRANCH  13  22
HETATM   22  C   UNL     1       2.746  -4.444   2.297  1.00  0.00     0.019 A 
HETATM   23  C   UNL     1       1.426  -4.408   3.042  1.00  0.00     0.007 A 
HETATM   24  C   UNL     1       2.595  -3.626   3.572  1.00  0.00     0.007 A 
ENDBRANCH  13  22
ENDBRANCH   1  13
TORSDOF 7
