REMARK  7 active torsions:
REMARK  status: ('A' for Active; 'I' for Inactive)
REMARK    1  A    between atoms: C_2  and  N_3 
REMARK       I    between atoms: N_3  and  C_4 
REMARK    2  A    between atoms: C_4  and  C_6 
REMARK    3  A    between atoms: C_6  and  C_7 
REMARK    4  A    between atoms: C_7  and  N_8 
REMARK    5  A    between atoms: N_8  and  C_9 
REMARK    6  A    between atoms: C_9  and  C_11 
REMARK    7  A    between atoms: C_11  and  N_12 
ROOT
HETATM    1  N   UNL     1       7.002  -3.248   2.966  1.00  0.00     0.089 N 
HETATM    2  H   UNL     1       6.717  -4.184   2.665  1.00  0.00     0.316 HD
ENDROOT
BRANCH   1   3
HETATM    3  C   UNL     1       6.475  -2.282   1.986  1.00  0.00     0.279 C 
BRANCH   3   4
HETATM    4  C   UNL     1       4.952  -2.342   1.857  1.00  0.00     0.132 C 
BRANCH   4   5
HETATM    5  C   UNL     1       4.499  -1.303   0.848  1.00  0.00     0.219 C 
HETATM    6  N   UNL     1       3.132  -1.242   0.683  1.00  0.00    -0.361 N 
HETATM    7  H   UNL     1       2.530  -1.773   1.297  1.00  0.00     0.162 HD
HETATM    8  O   UNL     1       5.273  -0.585   0.219  1.00  0.00    -0.274 OA
BRANCH   6   9
HETATM    9  C   UNL     1       2.533  -0.292  -0.234  1.00  0.00     0.118 C 
HETATM   10  C   UNL     1       2.273   1.049   0.429  1.00  0.00     0.026 C 
ENDBRANCH   6   9
ENDBRANCH   4   5
ENDBRANCH   3   4
ENDBRANCH   1   3
BRANCH   1  11
HETATM   11  C   UNL     1       8.491  -3.227   2.994  1.00  0.00     0.236 C 
HETATM   12  C   UNL     1       9.031  -1.873   3.479  1.00  0.00     0.044 C 
BRANCH  11  13
HETATM   13  C   UNL     1       9.063  -4.323   3.923  1.00  0.00     0.183 C 
BRANCH  13  14
HETATM   14  N   UNL     1       8.770  -5.677   3.497  1.00  0.00    -0.301 N 
HETATM   15  C   UNL     1       8.080  -6.622   4.201  1.00  0.00     0.118 A 
HETATM   16  C   UNL     1       8.066  -7.759   3.420  1.00  0.00    -0.028 A 
HETATM   17  C   UNL     1       7.443  -9.067   3.713  1.00  0.00     0.051 C 
HETATM   18  C   UNL     1       8.792  -7.388   2.266  1.00  0.00     0.115 A 
HETATM   19  N   UNL     1       9.227  -6.127   2.313  1.00  0.00    -0.310 N 
ATOM     20  HN  UNL     1       9.776  -5.623   1.616  1.00  0.00     0.186 HD
ENDBRANCH  13  14
ENDBRANCH  11  13
ENDBRANCH   1  11
TORSDOF 7
