REMARK  3 active torsions:
REMARK  status: ('A' for Active; 'I' for Inactive)
REMARK       I    between atoms: N_1  and  C_2 
REMARK    1  A    between atoms: C_2  and  C_4 
REMARK    2  A    between atoms: C_4  and  N_5 
REMARK    3  A    between atoms: C_7  and  N_8 
ROOT
HETATM    1  N   UNL     1       4.666   0.473  -0.876  1.00  0.00    -0.293 N 
HETATM    2  C   UNL     1       5.536   1.514  -0.703  1.00  0.00     0.141 A 
HETATM    3  C   UNL     1       6.775   0.946  -0.591  1.00  0.00     0.060 A 
HETATM    4  C   UNL     1       6.569  -0.438  -0.724  1.00  0.00     0.137 A 
HETATM    5  N   UNL     1       5.279  -0.738  -0.906  1.00  0.00    -0.307 N 
ATOM      6  HN  UNL     1       4.856  -1.657  -1.036  1.00  0.00     0.186 HD
ENDROOT
BRANCH   1   7
HETATM    7  C   UNL     1       3.224   0.559  -1.041  1.00  0.00     0.250 C 
BRANCH   7   8
HETATM    8  C   UNL     1       2.444  -0.084   0.087  1.00  0.00     0.235 C 
HETATM    9  N   UNL     1       2.963  -1.210   0.654  1.00  0.00    -0.369 N 
HETATM   10  H   UNL     1       2.469  -1.665   1.409  1.00  0.00     0.159 HD
HETATM   11  H   UNL     1       3.886  -1.550   0.382  1.00  0.00     0.159 HD
HETATM   12  O   UNL     1       1.340   0.331   0.439  1.00  0.00    -0.272 OA
ENDBRANCH   7   8
ENDBRANCH   1   7
BRANCH   3  13
HETATM   13  N   UNL     1       7.923   1.604  -0.396  1.00  0.00    -0.397 N 
HETATM   14  H   UNL     1       7.962   2.610  -0.269  1.00  0.00     0.156 HD
HETATM   15  H   UNL     1       8.811   1.132  -0.264  1.00  0.00     0.156 HD
ENDBRANCH   3  13
TORSDOF 3
