REMARK  3 active torsions:
REMARK  status: ('A' for Active; 'I' for Inactive)
REMARK    1  A    between atoms: O_1  and  C_2 
REMARK    2  A    between atoms: C_5  and  N_8 
REMARK       I    between atoms: N_8  and  C_9 
REMARK       I    between atoms: C_9  and  N_11 
REMARK    3  A    between atoms: N_11  and  C_12 
ROOT
HETATM    1  N   UNL     1       4.468  -0.672  -2.920  1.00  0.00    -0.338 N 
HETATM    2  C   UNL     1       5.039  -0.273  -4.115  1.00  0.00     0.322 C 
HETATM    3  O   UNL     1       4.367   0.152  -5.043  1.00  0.00    -0.247 OA
HETATM    4  N   UNL     1       6.394  -0.489  -4.119  1.00  0.00    -0.288 N 
HETATM    5  H   UNL     1       5.031  -0.539  -2.093  1.00  0.00     0.164 HD
HETATM    6  H   UNL     1       6.796  -1.095  -3.426  1.00  0.00     0.172 HD
ENDROOT
BRANCH   1   7
HETATM    7  C   UNL     1       3.012  -0.635  -2.763  1.00  0.00     0.086 C 
HETATM    8  C   UNL     1       2.512   0.769  -2.397  1.00  0.00     0.028 C 
HETATM    9  C   UNL     1       2.860   1.155  -0.958  1.00  0.00     0.034 C 
HETATM   10  C   UNL     1       2.383   0.107   0.048  1.00  0.00     0.118 C 
HETATM   11  C   UNL     1       2.890  -1.291  -0.304  1.00  0.00     0.034 C 
HETATM   12  C   UNL     1       2.552  -1.680  -1.744  1.00  0.00     0.028 C 
BRANCH  10  13
HETATM   13  O   UNL     1       0.959   0.077   0.070  1.00  0.00    -0.396 OA
HETATM   14  H   UNL     1       0.646   0.969   0.299  1.00  0.00     0.210 HD
ENDBRANCH  10  13
ENDBRANCH   1   7
BRANCH   4  15
HETATM   15  C   UNL     1       7.121  -0.265  -5.258  1.00  0.00     0.168 A 
HETATM   16  N   UNL     1       6.811   0.403  -6.343  1.00  0.00    -0.279 N 
HETATM   17  N   UNL     1       7.800   0.322  -7.305  1.00  0.00    -0.303 N 
ATOM     18  HN  UNL     1       5.941   0.922  -6.463  1.00  0.00     0.189 HD
HETATM   19  C   UNL     1       8.813  -0.411  -6.892  1.00  0.00     0.160 A 
ATOM     20  HN  UNL     1       7.751   0.773  -8.219  1.00  0.00     0.186 HD
HETATM   21  S   UNL     1       8.665  -0.999  -5.285  1.00  0.00    -0.046 SA
ENDBRANCH   4  15
TORSDOF 3
