REMARK  6 active torsions:
REMARK  status: ('A' for Active; 'I' for Inactive)
REMARK    1  A    between atoms: N_2  and  C_4 
REMARK    2  A    between atoms: N_9  and  C_10 
REMARK    3  A    between atoms: C_10  and  C_11 
REMARK       I    between atoms: C_11  and  N_13 
REMARK    4  A    between atoms: N_13  and  C_14 
REMARK    5  A    between atoms: C_14  and  C_15 
REMARK    6  A    between atoms: C_14  and  C_18 
ROOT
HETATM    1  C   UNL     1       4.779  -2.796  -2.190  1.00  0.00     0.234 C 
ENDROOT
BRANCH   1   2
HETATM    2  N   UNL     1       5.876  -3.654  -1.718  1.00  0.00    -0.314 N 
HETATM    3  C   UNL     1       5.658  -5.031  -1.582  1.00  0.00     0.247 C 
HETATM    4  C   UNL     1       6.882  -5.861  -1.410  1.00  0.00     0.077 C 
HETATM    5  O   UNL     1       4.570  -5.589  -1.680  1.00  0.00    -0.268 OA
HETATM    6  C   UNL     1       8.050  -5.277  -1.108  1.00  0.00     0.043 C 
HETATM    7  C   UNL     1       8.132  -3.835  -0.980  1.00  0.00     0.118 C 
HETATM    8  C   UNL     1       7.086  -3.072  -1.344  1.00  0.00     0.130 C 
BRANCH   7   9
HETATM    9  N   UNL     1       9.339  -3.186  -0.480  1.00  0.00    -0.114 N 
HETATM   10  O   UNL     1      10.286  -3.919  -0.164  1.00  0.00    -0.532 OA
HETATM   11  O   UNL     1       9.343  -1.949  -0.375  1.00  0.00    -0.532 OA
ENDBRANCH   7   9
ENDBRANCH   1   2
BRANCH   1  12
HETATM   12  C   UNL     1       4.954  -2.222  -3.611  1.00  0.00     0.236 C 
HETATM   13  O   UNL     1       4.982  -1.003  -3.797  1.00  0.00    -0.272 OA
HETATM   14  N   UNL     1       5.011  -3.044  -4.704  1.00  0.00    -0.354 N 
HETATM   15  H   UNL     1       4.988  -2.549  -5.584  1.00  0.00     0.162 HD
BRANCH  14  16
HETATM   16  C   UNL     1       4.875  -4.483  -4.742  1.00  0.00     0.092 C 
BRANCH  16  17
HETATM   17  C   UNL     1       3.418  -4.849  -4.867  1.00  0.00     0.009 A 
HETATM   18  C   UNL     1       2.968  -6.239  -4.461  1.00  0.00     0.007 A 
HETATM   19  C   UNL     1       2.851  -5.801  -5.892  1.00  0.00     0.007 A 
ENDBRANCH  16  17
BRANCH  16  20
HETATM   20  C   UNL     1       5.854  -5.128  -5.688  1.00  0.00     0.009 A 
HETATM   21  C   UNL     1       7.338  -4.913  -5.446  1.00  0.00     0.007 A 
HETATM   22  C   UNL     1       6.702  -4.397  -6.704  1.00  0.00     0.007 A 
ENDBRANCH  16  20
ENDBRANCH  14  16
ENDBRANCH   1  12
TORSDOF 6
