REMARK  5 active torsions:
REMARK  status: ('A' for Active; 'I' for Inactive)
REMARK       I    between atoms: C_2  and  N_3 
REMARK       I    between atoms: C_2  and  N_18 
REMARK    1  A    between atoms: N_3  and  C_4 
REMARK    2  A    between atoms: C_4  and  C_5 
REMARK    3  A    between atoms: C_5  and  N_6 
REMARK       I    between atoms: N_9  and  C_12 
REMARK    4  A    between atoms: C_12  and  C_14 
REMARK    5  A    between atoms: N_18  and  C_19 
ROOT
HETATM    1  C   UNL     1       2.161   1.402  -1.997  1.00  0.00     0.154 C 
ENDROOT
BRANCH   1   2
HETATM    2  N   UNL     1       2.915   0.580  -1.060  1.00  0.00    -0.341 N 
HETATM    3  C   UNL     1       3.307   1.135   0.144  1.00  0.00     0.320 C 
HETATM    4  O   UNL     1       3.134   2.315   0.410  1.00  0.00    -0.247 OA
HETATM    5  N   UNL     1       3.923   0.198   0.946  1.00  0.00    -0.308 N 
HETATM    6  H   UNL     1       4.309  -0.598   0.459  1.00  0.00     0.170 HD
HETATM    7  H   UNL     1       2.679  -0.399  -1.033  1.00  0.00     0.164 HD
BRANCH   5   8
HETATM    8  C   UNL     1       4.362   0.419   2.269  1.00  0.00     0.051 A 
HETATM    9  C   UNL     1       3.880   1.444   3.081  1.00  0.00     0.032 A 
HETATM   10  C   UNL     1       4.402   1.619   4.362  1.00  0.00     0.019 A 
HETATM   11  C   UNL     1       5.387   0.749   4.798  1.00  0.00     0.088 A 
HETATM   12  N   UNL     1       5.853  -0.282   4.061  1.00  0.00    -0.373 N 
HETATM   13  C   UNL     1       5.324  -0.425   2.821  1.00  0.00     0.117 A 
ATOM     14  HN  UNL     1       6.565  -0.919   4.418  1.00  0.00     0.164 HD
ENDBRANCH   5   8
ENDBRANCH   1   2
BRANCH   1  15
HETATM   15  C   UNL     1       3.068   2.271  -2.894  1.00  0.00     0.292 C 
BRANCH  15  16
HETATM   16  N   UNL     1       2.332   3.154  -3.824  1.00  0.00     0.093 N 
HETATM   17  C   UNL     1       3.263   3.902  -4.707  1.00  0.00     0.292 C 
HETATM   18  C   UNL     1       4.036   5.068  -4.041  1.00  0.00     0.156 C 
HETATM   19  N   UNL     1       3.151   5.927  -3.245  1.00  0.00    -0.348 N 
HETATM   20  C   UNL     1       2.262   5.205  -2.334  1.00  0.00     0.156 C 
HETATM   21  C   UNL     1       3.072   7.315  -3.307  1.00  0.00     0.224 C 
HETATM   22  C   UNL     1       1.474   4.140  -3.117  1.00  0.00     0.292 C 
HETATM   23  O   UNL     1       2.324   7.939  -2.544  1.00  0.00    -0.273 OA
BRANCH  21  24
HETATM   24  C   UNL     1       3.922   8.039  -4.382  1.00  0.00     0.078 C 
HETATM   25  C   UNL     1       3.795   9.590  -4.460  1.00  0.00     0.014 C 
HETATM   26  C   UNL     1       3.883   9.465  -5.990  1.00  0.00     0.002 C 
HETATM   27  C   UNL     1       3.368   8.024  -5.836  1.00  0.00     0.014 C 
ENDBRANCH  21  24
ENDBRANCH  15  16
ENDBRANCH   1  15
TORSDOF 5
