REMARK  6 active torsions:
REMARK  status: ('A' for Active; 'I' for Inactive)
REMARK    1  A    between atoms: C_2  and  C_3 
REMARK    2  A    between atoms: C_3  and  C_5 
REMARK    3  A    between atoms: C_3  and  N_16 
REMARK    4  A    between atoms: C_5  and  N_6 
REMARK       I    between atoms: N_6  and  C_7 
REMARK    5  A    between atoms: C_7  and  C_9 
REMARK    6  A    between atoms: C_9  and  N_10 
ROOT
HETATM    1  C   UNL     1       2.176  -0.558  -2.464  1.00  0.00     0.164 C 
ENDROOT
BRANCH   1   2
HETATM    2  C   UNL     1       2.824  -1.129  -1.132  1.00  0.00     0.171 C 
HETATM    3  C   UNL     1       2.150  -2.476  -0.805  1.00  0.00     0.051 C 
BRANCH   2   4
HETATM    4  C   UNL     1       2.442  -0.102   0.009  1.00  0.00     0.038 C 
HETATM    5  C   UNL     1       0.959   0.141   0.287  1.00  0.00     0.007 C 
ENDBRANCH   2   4
BRANCH   2   6
HETATM    6  N   UNL     1       4.330  -1.183  -1.215  1.00  0.00     0.103 N 
HETATM    7  C   UNL     1       4.973  -2.041  -2.233  1.00  0.00     0.299 C 
HETATM    8  C   UNL     1       5.214  -3.506  -1.825  1.00  0.00     0.198 C 
HETATM    9  O   UNL     1       5.923  -3.612  -0.586  1.00  0.00    -0.388 OA
HETATM   10  C   UNL     1       5.272  -2.864   0.445  1.00  0.00     0.198 C 
HETATM   11  C   UNL     1       5.100  -1.392   0.037  1.00  0.00     0.299 C 
ENDBRANCH   2   6
ENDBRANCH   1   2
BRANCH   1  12
HETATM   12  N   UNL     1       2.277  -1.380  -3.664  1.00  0.00    -0.357 N 
HETATM   13  C   UNL     1       1.199  -2.030  -4.227  1.00  0.00     0.237 C 
HETATM   14  O   UNL     1       0.071  -2.023  -3.741  1.00  0.00    -0.272 OA
HETATM   15  H   UNL     1       3.055  -1.183  -4.286  1.00  0.00     0.162 HD
BRANCH  13  16
HETATM   16  C   UNL     1       1.520  -2.815  -5.479  1.00  0.00     0.250 C 
BRANCH  16  17
HETATM   17  N   UNL     1       1.511  -1.974  -6.659  1.00  0.00    -0.295 N 
HETATM   18  C   UNL     1       0.449  -1.720  -7.479  1.00  0.00     0.112 A 
HETATM   19  C   UNL     1       0.942  -0.996  -8.536  1.00  0.00     0.037 A 
HETATM   20  C   UNL     1       2.313  -0.857  -8.261  1.00  0.00     0.108 A 
HETATM   21  N   UNL     1       2.668  -1.444  -7.112  1.00  0.00    -0.310 N 
ATOM     22  HN  UNL     1       3.592  -1.482  -6.681  1.00  0.00     0.186 HD
ENDBRANCH  16  17
ENDBRANCH  13  16
ENDBRANCH   1  12
TORSDOF 6
