REMARK  4 active torsions:
REMARK  status: ('A' for Active; 'I' for Inactive)
REMARK    1  A    between atoms: C_2  and  C_3 
REMARK    2  A    between atoms: C_3  and  C_4 
REMARK    3  A    between atoms: C_6  and  N_7 
REMARK       I    between atoms: N_7  and  C_8 
REMARK       I    between atoms: C_8  and  N_10 
REMARK    4  A    between atoms: N_10  and  C_11 
ROOT
HETATM    1  N   UNL     1       4.655  -0.826  -2.489  1.00  0.00    -0.338 N 
HETATM    2  C   UNL     1       5.157  -1.232  -3.711  1.00  0.00     0.321 C 
HETATM    3  O   UNL     1       6.262  -1.736  -3.853  1.00  0.00    -0.247 OA
HETATM    4  N   UNL     1       4.220  -1.064  -4.717  1.00  0.00    -0.306 N 
HETATM    5  H   UNL     1       4.033  -0.027  -2.513  1.00  0.00     0.164 HD
HETATM    6  H   UNL     1       3.270  -1.210  -4.413  1.00  0.00     0.171 HD
ENDROOT
BRANCH   1   7
HETATM    7  C   UNL     1       5.330  -1.117  -1.263  1.00  0.00     0.090 A 
HETATM    8  C   UNL     1       4.555  -1.446  -0.007  1.00  0.00     0.010 A 
HETATM    9  C   UNL     1       5.329  -0.156  -0.108  1.00  0.00     0.032 A 
BRANCH   8  10
HETATM   10  C   UNL     1       3.054  -1.405   0.043  1.00  0.00     0.006 C 
BRANCH  10  11
HETATM   11  C   UNL     1       2.426  -2.799   0.090  1.00  0.00    -0.004 C 
HETATM   12  C   UNL     1       2.734  -3.644  -1.136  1.00  0.00     0.005 C 
ENDBRANCH  10  11
ENDBRANCH   8  10
ENDBRANCH   1   7
BRANCH   4  13
HETATM   13  C   UNL     1       4.501  -1.452  -6.051  1.00  0.00     0.077 A 
HETATM   14  C   UNL     1       5.726  -1.181  -6.660  1.00  0.00     0.050 A 
HETATM   15  C   UNL     1       5.928  -1.635  -7.954  1.00  0.00     0.090 A 
HETATM   16  N   UNL     1       5.012  -2.333  -8.664  1.00  0.00    -0.372 N 
HETATM   17  C   UNL     1       3.832  -2.577  -8.045  1.00  0.00     0.132 A 
ATOM     18  HN  UNL     1       5.199  -2.657  -9.613  1.00  0.00     0.164 HD
HETATM   19  C   UNL     1       3.531  -2.143  -6.768  1.00  0.00     0.158 A 
HETATM   20  F   UNL     1       2.347  -2.433  -6.210  1.00  0.00    -0.202 F 
ENDBRANCH   4  13
TORSDOF 4
