REMARK  2 active torsions:
REMARK  status: ('A' for Active; 'I' for Inactive)
REMARK    1  A    between atoms: C_4  and  C_8 
REMARK    2  A    between atoms: C_14  and  N_15 
ROOT
HETATM    1  C   UNL     1       5.585   1.202   0.045  1.00  0.00     0.153 C 
HETATM    2  N   UNL     1       5.630   2.290  -0.911  1.00  0.00    -0.350 N 
HETATM    3  C   UNL     1       5.928   2.145  -2.233  1.00  0.00     0.218 C 
HETATM    4  O   UNL     1       5.748   3.086  -3.004  1.00  0.00    -0.274 OA
HETATM    5  C   UNL     1       6.574   0.851  -2.695  1.00  0.00     0.105 C 
HETATM    6  C   UNL     1       6.472  -0.329  -1.732  1.00  0.00     0.047 C 
HETATM    7  C   UNL     1       6.675   0.143  -0.289  1.00  0.00     0.245 C 
HETATM    8  H   UNL     1       5.177   3.164  -0.674  1.00  0.00     0.163 HD
ENDROOT
BRANCH   1   9
HETATM    9  C   UNL     1       4.181   0.659   0.104  1.00  0.00     0.001 A 
HETATM   10  C   UNL     1       3.211   0.582  -0.882  1.00  0.00     0.120 A 
HETATM   11  N   UNL     1       2.133  -0.043  -0.326  1.00  0.00    -0.307 N 
HETATM   12  C   UNL     1       0.896  -0.396  -0.981  1.00  0.00     0.177 C 
HETATM   13  N   UNL     1       2.313  -0.357   0.969  1.00  0.00    -0.310 N 
HETATM   14  C   UNL     1       3.547   0.077   1.231  1.00  0.00     0.118 A 
ATOM     15  HN  UNL     1       1.660  -0.818   1.602  1.00  0.00     0.186 HD
ENDBRANCH   1   9
BRANCH   7  16
HETATM   16  N   UNL     1       6.761  -1.004   0.622  1.00  0.00     0.085 N 
HETATM   17  H   UNL     1       5.857  -1.475   0.686  1.00  0.00     0.313 HD
HETATM   18  H   UNL     1       6.992  -0.686   1.563  1.00  0.00     0.313 HD
ENDBRANCH   7  16
TORSDOF 2
