REMARK  3 active torsions:
REMARK  status: ('A' for Active; 'I' for Inactive)
REMARK    1  A    between atoms: C_5  and  N_8 
REMARK    2  A    between atoms: C_11  and  N_14 
REMARK       I    between atoms: N_14  and  C_15 
REMARK       I    between atoms: C_15  and  N_17 
REMARK    3  A    between atoms: N_17  and  C_18 
ROOT
HETATM    1  N   UNL     1       6.654  -0.908  -5.792  1.00  0.00    -0.338 N 
HETATM    2  C   UNL     1       7.231  -0.191  -6.817  1.00  0.00     0.321 C 
HETATM    3  O   UNL     1       6.591   0.521  -7.579  1.00  0.00    -0.247 OA
HETATM    4  N   UNL     1       8.581  -0.447  -6.897  1.00  0.00    -0.308 N 
HETATM    5  H   UNL     1       7.229  -0.976  -4.963  1.00  0.00     0.164 HD
HETATM    6  H   UNL     1       8.837  -1.379  -6.605  1.00  0.00     0.170 HD
ENDROOT
BRANCH   1   7
HETATM    7  C   UNL     1       5.205  -0.869  -5.604  1.00  0.00     0.089 C 
HETATM    8  C   UNL     1       4.754   0.423  -4.914  1.00  0.00     0.055 C 
HETATM    9  C   UNL     1       5.046   0.389  -3.413  1.00  0.00     0.275 C 
HETATM   10  N   UNL     1       4.467  -0.784  -2.729  1.00  0.00     0.093 N 
HETATM   11  C   UNL     1       5.021  -2.002  -3.346  1.00  0.00     0.275 C 
HETATM   12  C   UNL     1       4.732  -2.110  -4.843  1.00  0.00     0.055 C 
BRANCH  10  13
HETATM   13  C   UNL     1       2.979  -0.760  -2.640  1.00  0.00     0.226 C 
HETATM   14  C   UNL     1       2.436   0.477  -1.887  1.00  0.00     0.066 C 
HETATM   15  C   UNL     1       2.758   0.424  -0.390  1.00  0.00     0.274 C 
HETATM   16  N   UNL     1       2.265  -0.789   0.279  1.00  0.00     0.084 N 
HETATM   17  C   UNL     1       0.815  -0.772   0.461  1.00  0.00     0.309 C 
HETATM   18  C   UNL     1       2.724  -1.994  -0.426  1.00  0.00     0.274 C 
HETATM   19  C   UNL     1       2.385  -1.993  -1.921  1.00  0.00     0.066 C 
ENDBRANCH  10  13
ENDBRANCH   1   7
BRANCH   4  20
HETATM   20  C   UNL     1       9.392   0.166  -7.871  1.00  0.00     0.052 A 
HETATM   21  C   UNL     1       9.259   1.504  -8.242  1.00  0.00     0.117 A 
HETATM   22  N   UNL     1      10.016   2.106  -9.187  1.00  0.00    -0.373 N 
HETATM   23  C   UNL     1      10.921   1.329  -9.822  1.00  0.00     0.094 A 
ATOM     24  HN  UNL     1       9.909   3.096  -9.409  1.00  0.00     0.164 HD
HETATM   25  C   UNL     1      11.130  -0.016  -9.536  1.00  0.00    -0.044 A 
HETATM   26  C   UNL     1      12.084  -0.845 -10.338  1.00  0.00     0.049 C 
HETATM   27  C   UNL     1      10.366  -0.595  -8.518  1.00  0.00     0.039 A 
ENDBRANCH   4  20
TORSDOF 3
