REMARK  7 active torsions:
REMARK  status: ('A' for Active; 'I' for Inactive)
REMARK    1  A    between atoms: N_11  and  C_12 
REMARK    2  A    between atoms: C_12  and  C_13 
REMARK    3  A    between atoms: C_13  and  O_14 
REMARK    4  A    between atoms: C_13  and  C_15 
REMARK    5  A    between atoms: C_15  and  O_16 
REMARK    6  A    between atoms: O_16  and  C_17 
REMARK    7  A    between atoms: C_17  and  C_18 
ROOT
HETATM    1  C   UNL     1       5.734   0.384  -4.682  1.00  0.00     0.164 C 
HETATM    2  N   UNL     1       5.755   0.218  -3.242  1.00  0.00    -0.269 N 
HETATM    3  C   UNL     1       5.896  -1.086  -2.723  1.00  0.00     0.332 A 
HETATM    4  O   UNL     1       6.003  -2.066  -3.465  1.00  0.00    -0.246 OA
HETATM    5  N   UNL     1       5.906  -1.217  -1.332  1.00  0.00    -0.287 N 
HETATM    6  C   UNL     1       6.056  -2.523  -0.715  1.00  0.00     0.163 C 
HETATM    7  C   UNL     1       5.781  -0.096  -0.547  1.00  0.00     0.145 A 
HETATM    8  N   UNL     1       5.763  -0.068   0.814  1.00  0.00    -0.336 N 
ATOM      9  HN  UNL     1       5.834  -0.857   1.457  1.00  0.00     0.168 HD
HETATM   10  C   UNL     1       5.633   1.210   1.114  1.00  0.00     0.185 A 
HETATM   11  N   UNL     1       5.570   1.992  -0.010  1.00  0.00    -0.333 N 
HETATM   12  C   UNL     1       5.659   1.149  -1.085  1.00  0.00     0.149 A 
HETATM   13  C   UNL     1       5.658   1.391  -2.484  1.00  0.00     0.282 A 
HETATM   14  O   UNL     1       5.585   2.520  -2.967  1.00  0.00    -0.265 OA
ENDROOT
BRANCH  11  15
HETATM   15  C   UNL     1       5.393   3.432  -0.030  1.00  0.00     0.164 C 
BRANCH  15  16
HETATM   16  C   UNL     1       6.724   4.197  -0.074  1.00  0.00     0.160 C 
BRANCH  16  17
HETATM   17  O   UNL     1       7.488   3.877  -1.242  1.00  0.00    -0.392 OA
HETATM   18  H   UNL     1       6.895   3.891  -2.021  1.00  0.00     0.210 HD
ENDBRANCH  16  17
BRANCH  16  19
HETATM   19  C   UNL     1       6.495   5.712  -0.052  1.00  0.00     0.201 C 
BRANCH  19  20
HETATM   20  O   UNL     1       5.776   6.094   1.117  1.00  0.00    -0.382 OA
BRANCH  20  21
HETATM   21  C   UNL     1       5.561   7.509   1.144  1.00  0.00     0.232 C 
BRANCH  21  22
HETATM   22  C   UNL     1       4.833   7.832   2.395  1.00  0.00     0.076 A 
HETATM   23  C   UNL     1       4.814   7.287   3.662  1.00  0.00     0.037 A 
HETATM   24  C   UNL     1       3.924   8.079   4.426  1.00  0.00     0.027 A 
HETATM   25  C   UNL     1       3.459   9.058   3.580  1.00  0.00     0.142 A 
HETATM   26  O   UNL     1       4.007   8.918   2.346  1.00  0.00    -0.325 OA
ENDBRANCH  21  22
ENDBRANCH  20  21
ENDBRANCH  19  20
ENDBRANCH  16  19
ENDBRANCH  15  16
ENDBRANCH  11  15
TORSDOF 7
