REMARK  5 active torsions:
REMARK  status: ('A' for Active; 'I' for Inactive)
REMARK    1  A    between atoms: C_2  and  C_4 
REMARK    2  A    between atoms: C_4  and  N_5 
REMARK       I    between atoms: N_5  and  C_6 
REMARK       I    between atoms: C_6  and  N_8 
REMARK    3  A    between atoms: N_8  and  C_9 
REMARK    4  A    between atoms: C_9  and  C_10 
REMARK    5  A    between atoms: C_15  and  N_17 
ROOT
HETATM    1  C   UNL     1       8.835  -3.524  -0.999  1.00  0.00    -0.035 A 
HETATM    2  C   UNL     1       9.404  -2.257  -0.971  1.00  0.00     0.026 A 
HETATM    3  C   UNL     1      10.781  -2.167  -1.059  1.00  0.00     0.090 A 
HETATM    4  N   UNL     1      11.605  -3.234  -1.171  1.00  0.00    -0.352 N 
ATOM      5  HN  UNL     1      12.614  -3.103  -1.244  1.00  0.00     0.166 HD
HETATM    6  C   UNL     1      11.073  -4.476  -1.185  1.00  0.00     0.103 A 
HETATM    7  C   UNL     1       9.690  -4.634  -1.072  1.00  0.00     0.057 A 
ENDROOT
BRANCH   1   8
HETATM    8  C   UNL     1       7.345  -3.716  -1.055  1.00  0.00     0.163 C 
BRANCH   8   9
HETATM    9  N   UNL     1       6.714  -3.703   0.245  1.00  0.00    -0.339 N 
HETATM   10  C   UNL     1       5.361  -3.940   0.290  1.00  0.00     0.316 C 
HETATM   11  N   UNL     1       4.893  -3.974   1.576  1.00  0.00    -0.343 N 
HETATM   12  O   UNL     1       4.661  -4.102  -0.702  1.00  0.00    -0.247 OA
HETATM   13  H   UNL     1       5.451  -3.494   2.266  1.00  0.00     0.164 HD
HETATM   14  H   UNL     1       7.241  -4.086   1.013  1.00  0.00     0.164 HD
BRANCH  11  15
HETATM   15  C   UNL     1       3.481  -4.168   1.863  1.00  0.00     0.128 C 
BRANCH  15  16
HETATM   16  C   UNL     1       3.115  -5.649   2.052  1.00  0.00    -0.005 C 
HETATM   17  C   UNL     1       3.852  -6.259   3.246  1.00  0.00     0.011 C 
HETATM   18  C   UNL     1       1.605  -5.804   2.246  1.00  0.00     0.011 C 
ENDBRANCH  15  16
ENDBRANCH  11  15
ENDBRANCH   8   9
ENDBRANCH   1   8
BRANCH   6  19
HETATM   19  N   UNL     1      11.897  -5.547  -1.441  1.00  0.00    -0.363 N 
HETATM   20  C   UNL     1      13.293  -5.310  -1.837  1.00  0.00     0.150 C 
HETATM   21  C   UNL     1      13.688  -6.378  -2.874  1.00  0.00     0.187 C 
HETATM   22  O   UNL     1      13.482  -7.714  -2.376  1.00  0.00    -0.388 OA
HETATM   23  C   UNL     1      12.104  -7.906  -2.010  1.00  0.00     0.187 C 
HETATM   24  C   UNL     1      11.662  -6.901  -0.934  1.00  0.00     0.150 C 
ENDBRANCH   6  19
TORSDOF 5
