REMARK  3 active torsions:
REMARK  status: ('A' for Active; 'I' for Inactive)
REMARK    1  A    between atoms: C_5  and  N_7 
REMARK       I    between atoms: N_7  and  C_8 
REMARK       I    between atoms: C_8  and  N_10 
REMARK    2  A    between atoms: N_10  and  C_11 
REMARK    3  A    between atoms: C_14  and  N_18 
ROOT
HETATM    1  C   UNL     1       9.150   0.309  -0.658  1.00  0.00     0.051 A 
HETATM    2  C   UNL     1      10.111   1.269  -0.927  1.00  0.00     0.035 A 
HETATM    3  C   UNL     1      11.460   0.906  -0.946  1.00  0.00     0.051 A 
HETATM    4  C   UNL     1      11.853  -0.422  -0.764  1.00  0.00     0.103 A 
HETATM    5  N   UNL     1      10.914  -1.362  -0.514  1.00  0.00    -0.350 N 
ATOM      6  HN  UNL     1      11.180  -2.337  -0.377  1.00  0.00     0.166 HD
HETATM    7  C   UNL     1       9.603  -0.985  -0.448  1.00  0.00     0.119 A 
ENDROOT
BRANCH   1   8
HETATM    8  N   UNL     1       7.794   0.702  -0.611  1.00  0.00    -0.308 N 
HETATM    9  C   UNL     1       6.915   0.245   0.349  1.00  0.00     0.321 C 
HETATM   10  N   UNL     1       5.693   0.880   0.246  1.00  0.00    -0.336 N 
HETATM   11  O   UNL     1       7.189  -0.542   1.245  1.00  0.00    -0.247 OA
HETATM   12  H   UNL     1       5.331   1.008  -0.690  1.00  0.00     0.164 HD
HETATM   13  H   UNL     1       7.581   1.638  -0.925  1.00  0.00     0.170 HD
BRANCH  10  14
HETATM   14  C   UNL     1       4.694   0.705   1.299  1.00  0.00     0.116 C 
HETATM   15  C   UNL     1       3.933  -0.608   1.163  1.00  0.00     0.057 C 
HETATM   16  C   UNL     1       2.588  -0.244   0.541  1.00  0.00     0.274 C 
HETATM   17  N   UNL     1       2.619   1.201   0.288  1.00  0.00     0.086 N 
HETATM   18  C   UNL     1       1.299   1.805   0.444  1.00  0.00     0.310 C 
HETATM   19  C   UNL     1       3.587   1.760   1.243  1.00  0.00     0.296 C 
ENDBRANCH  10  14
ENDBRANCH   1   8
BRANCH   4  20
HETATM   20  N   UNL     1      13.183  -0.783  -0.790  1.00  0.00    -0.363 N 
HETATM   21  C   UNL     1      14.205  -0.062  -1.564  1.00  0.00     0.150 C 
HETATM   22  C   UNL     1      14.820  -0.984  -2.635  1.00  0.00     0.187 C 
HETATM   23  O   UNL     1      15.328  -2.194  -2.060  1.00  0.00    -0.388 OA
HETATM   24  C   UNL     1      14.261  -2.921  -1.424  1.00  0.00     0.187 C 
HETATM   25  C   UNL     1      13.607  -2.102  -0.299  1.00  0.00     0.150 C 
ENDBRANCH   4  20
TORSDOF 3
