REMARK  5 active torsions:
REMARK  status: ('A' for Active; 'I' for Inactive)
REMARK    1  A    between atoms: C_2  and  C_3 
REMARK    2  A    between atoms: C_3  and  C_4 
REMARK    3  A    between atoms: C_3  and  N_15 
REMARK    4  A    between atoms: C_4  and  N_5 
REMARK       I    between atoms: N_5  and  C_6 
REMARK       I    between atoms: C_6  and  N_8 
REMARK    5  A    between atoms: N_8  and  C_9 
ROOT
HETATM    1  N   UNL     1       2.700   3.819  -0.250  1.00  0.00    -0.341 N 
HETATM    2  C   UNL     1       2.106   4.915   0.357  1.00  0.00     0.322 C 
HETATM    3  O   UNL     1       1.232   4.776   1.203  1.00  0.00    -0.247 OA
HETATM    4  N   UNL     1       2.573   6.104  -0.141  1.00  0.00    -0.289 N 
HETATM    5  H   UNL     1       3.691   3.891  -0.433  1.00  0.00     0.164 HD
HETATM    6  H   UNL     1       2.985   6.117  -1.058  1.00  0.00     0.172 HD
ENDROOT
BRANCH   1   7
HETATM    7  C   UNL     1       2.253   2.514   0.211  1.00  0.00     0.160 C 
BRANCH   7   8
HETATM    8  C   UNL     1       2.947   1.307  -0.471  1.00  0.00     0.240 C 
BRANCH   8   9
HETATM    9  C   UNL     1       2.349  -0.017   0.084  1.00  0.00     0.033 C 
HETATM   10  C   UNL     1       0.849  -0.169  -0.161  1.00  0.00     0.007 C 
ENDBRANCH   8   9
BRANCH   8  11
HETATM   11  N   UNL     1       4.424   1.405  -0.379  1.00  0.00     0.094 N 
HETATM   12  C   UNL     1       5.164   0.374  -1.117  1.00  0.00     0.273 C 
HETATM   13  C   UNL     1       6.426   0.096  -0.306  1.00  0.00     0.032 C 
HETATM   14  C   UNL     1       6.456   1.186   0.744  1.00  0.00     0.032 C 
HETATM   15  C   UNL     1       4.985   1.484   0.971  1.00  0.00     0.273 C 
ENDBRANCH   8  11
ENDBRANCH   7   8
ENDBRANCH   1   7
BRANCH   4  16
HETATM   16  C   UNL     1       2.124   7.291   0.379  1.00  0.00     0.152 A 
HETATM   17  N   UNL     1       1.536   7.513   1.527  1.00  0.00    -0.346 N 
HETATM   18  C   UNL     1       1.219   8.848   1.635  1.00  0.00     0.097 A 
ATOM     19  HN  UNL     1       1.342   6.804   2.234  1.00  0.00     0.167 HD
HETATM   20  C   UNL     1       1.591   9.633   0.567  1.00  0.00     0.070 A 
HETATM   21  S   UNL     1       2.389   8.662  -0.606  1.00  0.00    -0.064 SA
ENDBRANCH   4  16
TORSDOF 5
