REMARK  5 active torsions:
REMARK  status: ('A' for Active; 'I' for Inactive)
REMARK    1  A    between atoms: C_6  and  N_7 
REMARK       I    between atoms: N_7  and  C_8 
REMARK    2  A    between atoms: C_8  and  C_10 
REMARK    3  A    between atoms: C_10  and  N_11 
REMARK    4  A    between atoms: C_18  and  C_19 
REMARK    5  A    between atoms: C_19  and  N_20 
ROOT
HETATM    1  N   UNL     1       4.352  -5.044  -3.929  1.00  0.00    -0.247 N 
HETATM    2  N   UNL     1       4.797  -4.989  -5.227  1.00  0.00    -0.299 N 
ATOM      3  HN  UNL     1       4.138  -4.872  -5.997  1.00  0.00     0.187 HD
HETATM    4  C   UNL     1       6.069  -5.088  -5.457  1.00  0.00     0.029 A 
HETATM    5  C   UNL     1       6.510  -5.002  -6.900  1.00  0.00     0.070 C 
HETATM    6  C   UNL     1       7.094  -5.282  -4.402  1.00  0.00    -0.013 A 
HETATM    7  C   UNL     1       8.554  -5.395  -4.738  1.00  0.00     0.052 C 
HETATM    8  C   UNL     1       6.618  -5.333  -3.145  1.00  0.00     0.103 A 
HETATM    9  C   UNL     1       5.187  -5.178  -2.833  1.00  0.00     0.282 A 
HETATM   10  O   UNL     1       4.789  -5.143  -1.670  1.00  0.00    -0.265 OA
ENDROOT
BRANCH   1  11
HETATM   11  C   UNL     1       2.907  -4.966  -3.741  1.00  0.00     0.255 C 
BRANCH  11  12
HETATM   12  C   UNL     1       2.428  -3.547  -3.453  1.00  0.00     0.237 C 
HETATM   13  N   UNL     1       2.932  -2.967  -2.303  1.00  0.00    -0.355 N 
HETATM   14  H   UNL     1       3.629  -3.472  -1.758  1.00  0.00     0.162 HD
HETATM   15  O   UNL     1       1.561  -3.008  -4.141  1.00  0.00    -0.272 OA
BRANCH  13  16
HETATM   16  C   UNL     1       2.506  -1.642  -1.874  1.00  0.00     0.088 C 
HETATM   17  C   UNL     1       3.377  -0.566  -2.538  1.00  0.00     0.025 C 
HETATM   18  C   UNL     1       2.946   0.841  -2.135  1.00  0.00     0.002 C 
HETATM   19  C   UNL     1       2.905   1.007  -0.618  1.00  0.00     0.005 C 
HETATM   20  C   UNL     1       2.051  -0.064   0.082  1.00  0.00    -0.013 C 
HETATM   21  C   UNL     1       0.556   0.187  -0.168  1.00  0.00     0.010 C 
HETATM   22  C   UNL     1       2.527  -1.483  -0.335  1.00  0.00     0.008 C 
HETATM   23  C   UNL     1       1.726  -2.583   0.372  1.00  0.00     0.012 C 
ENDBRANCH  13  16
ENDBRANCH  11  12
ENDBRANCH   1  11
BRANCH   8  24
HETATM   24  C   UNL     1       7.608  -5.490  -2.003  1.00  0.00    -0.031 C 
BRANCH  24  25
HETATM   25  N   UNL     1       8.430  -5.621  -1.055  1.00  0.00    -0.365 N 
ATOM     26  HN2 UNL     1       7.768  -5.542  -1.827  1.00  0.00     0.165 HD
ATOM     27  HN1 UNL     1       9.095  -5.726  -0.288  1.00  0.00     0.165 HD
ENDBRANCH  24  25
ENDBRANCH   8  24
TORSDOF 5
