REMARK  9 active torsions:
REMARK  status: ('A' for Active; 'I' for Inactive)
REMARK    1  A    between atoms: C_2  and  C_4 
REMARK    2  A    between atoms: C_9  and  O_10 
REMARK    3  A    between atoms: O_10  and  C_11 
REMARK    4  A    between atoms: C_11  and  C_12 
REMARK    5  A    between atoms: C_12  and  O_13 
REMARK    6  A    between atoms: C_12  and  C_14 
REMARK    7  A    between atoms: C_14  and  N_15 
REMARK    8  A    between atoms: C_22  and  C_23 
REMARK    9  A    between atoms: C_23  and  N_24 
ROOT
HETATM    1  C   UNL     1       3.766  -3.238  -2.895  1.00  0.00     0.186 C 
ENDROOT
BRANCH   1   2
HETATM    2  C   UNL     1       4.113  -1.797  -3.324  1.00  0.00     0.162 C 
BRANCH   2   3
HETATM    3  C   UNL     1       3.670  -0.805  -2.236  1.00  0.00     0.209 C 
BRANCH   3   4
HETATM    4  O   UNL     1       3.769   0.551  -2.654  1.00  0.00    -0.348 OA
BRANCH   4   5
HETATM    5  C   UNL     1       4.051   1.475  -1.670  1.00  0.00     0.075 A 
HETATM    6  C   UNL     1       3.546   1.546  -0.353  1.00  0.00    -0.021 A 
HETATM    7  C   UNL     1       4.004   2.615   0.453  1.00  0.00     0.010 A 
HETATM    8  C   UNL     1       4.885   3.588  -0.026  1.00  0.00     0.001 A 
HETATM    9  C   UNL     1       5.339   3.523  -1.333  1.00  0.00     0.003 A 
HETATM   10  C   UNL     1       4.923   2.473  -2.147  1.00  0.00     0.037 A 
BRANCH   6  11
HETATM   11  C   UNL     1       2.536   0.581   0.268  1.00  0.00     0.013 C 
HETATM   12  C   UNL     1       3.230  -0.472   1.145  1.00  0.00     0.015 C 
HETATM   13  C   UNL     1       1.439   1.257   1.111  1.00  0.00     0.015 C 
ENDBRANCH   6  11
ENDBRANCH   4   5
ENDBRANCH   3   4
ENDBRANCH   2   3
BRANCH   2  14
HETATM   14  O   UNL     1       5.534  -1.712  -3.534  1.00  0.00    -0.392 OA
HETATM   15  H   UNL     1       5.974  -1.715  -2.667  1.00  0.00     0.210 HD
ENDBRANCH   2  14
ENDBRANCH   1   2
BRANCH   1  16
HETATM   16  N   UNL     1       2.346  -3.431  -2.591  1.00  0.00    -0.254 N 
HETATM   17  N   UNL     1       1.472  -3.369  -3.647  1.00  0.00    -0.300 N 
HETATM   18  C   UNL     1       0.202  -3.497  -3.412  1.00  0.00     0.029 C 
ATOM     19  HN  UNL     1       1.813  -3.225  -4.597  1.00  0.00     0.187 HD
HETATM   20  C   UNL     1      -0.714  -3.499  -4.615  1.00  0.00     0.070 C 
HETATM   21  C   UNL     1      -0.398  -3.650  -2.064  1.00  0.00    -0.013 C 
HETATM   22  C   UNL     1      -1.872  -3.822  -1.852  1.00  0.00     0.052 C 
HETATM   23  C   UNL     1       0.489  -3.664  -1.054  1.00  0.00     0.103 C 
HETATM   24  C   UNL     1       1.951  -3.653  -1.282  1.00  0.00     0.282 C 
HETATM   25  O   UNL     1       2.728  -3.806  -0.346  1.00  0.00    -0.265 OA
BRANCH  23  26
HETATM   26  C   UNL     1       0.044  -3.872   0.385  1.00  0.00    -0.031 C 
BRANCH  26  27
HETATM   27  N   UNL     1      -0.326  -4.045   1.578  1.00  0.00    -0.365 N 
ATOM     28  HN2 UNL     1      -0.067  -3.926   0.599  1.00  0.00     0.165 HD
ATOM     29  HN1 UNL     1      -0.625  -4.185   2.543  1.00  0.00     0.165 HD
ENDBRANCH  26  27
ENDBRANCH  23  26
ENDBRANCH   1  16
TORSDOF 9
