REMARK  6 active torsions:
REMARK  status: ('A' for Active; 'I' for Inactive)
REMARK    1  A    between atoms: C_7  and  O_8 
REMARK    2  A    between atoms: O_8  and  C_9 
REMARK    3  A    between atoms: C_9  and  C_10 
REMARK    4  A    between atoms: C_10  and  O_11 
REMARK    5  A    between atoms: C_10  and  C_12 
REMARK    6  A    between atoms: C_12  and  N_13 
ROOT
HETATM    1  C   UNL     1       5.599  -4.731  -0.534  1.00  0.00     0.162 C 
ENDROOT
BRANCH   1   2
HETATM    2  C   UNL     1       4.614  -3.586  -0.264  1.00  0.00     0.209 C 
BRANCH   2   3
HETATM    3  O   UNL     1       5.314  -2.343  -0.366  1.00  0.00    -0.347 OA
BRANCH   3   4
HETATM    4  C   UNL     1       4.606  -1.192  -0.141  1.00  0.00     0.091 A 
HETATM    5  C   UNL     1       5.329   0.009  -0.154  1.00  0.00     0.067 A 
HETATM    6  C   UNL     1       4.681   1.231   0.037  1.00  0.00     0.027 A 
HETATM    7 CL   UNL     1       7.040   0.034  -0.408  1.00  0.00    -0.081 Cl
HETATM    8  C   UNL     1       3.300   1.267   0.234  1.00  0.00     0.008 A 
HETATM    9  C   UNL     1       2.561   0.081   0.247  1.00  0.00    -0.059 A 
HETATM   10  C   UNL     1       1.073   0.101   0.439  1.00  0.00     0.048 C 
HETATM   11  C   UNL     1       3.223  -1.145   0.072  1.00  0.00     0.045 A 
ENDBRANCH   3   4
ENDBRANCH   2   3
ENDBRANCH   1   2
BRANCH   1  12
HETATM   12  O   UNL     1       6.631  -4.749   0.464  1.00  0.00    -0.392 OA
HETATM   13  H   UNL     1       6.229  -5.181   1.246  1.00  0.00     0.210 HD
ENDBRANCH   1  12
BRANCH   1  14
HETATM   14  C   UNL     1       4.890  -6.094  -0.576  1.00  0.00     0.186 C 
BRANCH  14  15
HETATM   15  N   UNL     1       4.173  -6.406   0.668  1.00  0.00    -0.255 N 
HETATM   16  N   UNL     1       4.941  -6.453   1.816  1.00  0.00    -0.300 N 
HETATM   17  C   UNL     1       4.349  -6.757   2.928  1.00  0.00     0.022 A 
ATOM     18  HN  UNL     1       5.941  -6.255   1.789  1.00  0.00     0.187 HD
HETATM   19  C   UNL     1       5.166  -6.781   4.194  1.00  0.00     0.069 C 
HETATM   20  C   UNL     1       2.918  -7.090   3.046  1.00  0.00     0.031 A 
HETATM   21  C   UNL     1       2.186  -7.008   1.935  1.00  0.00     0.078 A 
HETATM   22  C   UNL     1       2.799  -6.618   0.649  1.00  0.00     0.262 A 
HETATM   23  O   UNL     1       2.083  -6.500  -0.341  1.00  0.00    -0.267 OA
ENDBRANCH  14  15
ENDBRANCH   1  14
TORSDOF 6
