REMARK  7 active torsions:
REMARK  status: ('A' for Active; 'I' for Inactive)
REMARK    1  A    between atoms: N_2  and  C_4 
REMARK    2  A    between atoms: C_4  and  C_5 
REMARK    3  A    between atoms: C_5  and  N_6 
REMARK       I    between atoms: N_6  and  C_7 
REMARK    4  A    between atoms: C_7  and  C_9 
REMARK    5  A    between atoms: C_9  and  N_10 
REMARK    6  A    between atoms: C_12  and  N_13 
REMARK       I    between atoms: N_13  and  C_14 
REMARK    7  A    between atoms: C_14  and  C_16 
ROOT
HETATM    1  N   UNL     1       8.434   4.326   0.967  1.00  0.00    -0.293 N 
HETATM    2  C   UNL     1       9.228   4.543  -0.119  1.00  0.00     0.141 A 
HETATM    3  C   UNL     1      10.522   4.600   0.339  1.00  0.00     0.069 A 
HETATM    4  C   UNL     1      10.399   4.399   1.734  1.00  0.00     0.138 A 
HETATM    5  N   UNL     1       9.128   4.226   2.124  1.00  0.00    -0.307 N 
ATOM      6  HN  UNL     1       8.771   4.059   3.065  1.00  0.00     0.186 HD
ENDROOT
BRANCH   1   7
HETATM    7  C   UNL     1       6.988   4.238   0.963  1.00  0.00     0.250 C 
BRANCH   7   8
HETATM    8  C   UNL     1       6.527   2.830   0.685  1.00  0.00     0.237 C 
HETATM    9  N   UNL     1       6.829   1.906   1.660  1.00  0.00    -0.358 N 
HETATM   10  H   UNL     1       7.361   2.185   2.482  1.00  0.00     0.162 HD
HETATM   11  O   UNL     1       5.890   2.542  -0.327  1.00  0.00    -0.272 OA
BRANCH   9  12
HETATM   12  C   UNL     1       6.469   0.512   1.508  1.00  0.00     0.152 C 
BRANCH  12  13
HETATM   13  C   UNL     1       6.901  -0.357   2.703  1.00  0.00     0.290 C 
BRANCH  13  14
HETATM   14  N   UNL     1       6.402   0.099   4.018  1.00  0.00     0.081 N 
HETATM   15  C   UNL     1       4.938   0.073   4.080  1.00  0.00     0.309 C 
HETATM   16  C   UNL     1       6.950  -0.756   5.077  1.00  0.00     0.309 C 
ENDBRANCH  13  14
ENDBRANCH  12  13
ENDBRANCH   9  12
ENDBRANCH   7   8
ENDBRANCH   1   7
BRANCH   3  17
HETATM   17  N   UNL     1      11.679   4.807  -0.396  1.00  0.00    -0.324 N 
HETATM   18  C   UNL     1      11.702   5.033  -1.766  1.00  0.00     0.226 C 
HETATM   19  O   UNL     1      10.696   5.074  -2.481  1.00  0.00    -0.273 OA
HETATM   20  H   UNL     1      12.551   4.813   0.118  1.00  0.00     0.169 HD
BRANCH  18  21
HETATM   21  C   UNL     1      13.122   5.242  -2.357  1.00  0.00     0.078 C 
HETATM   22  C   UNL     1      13.363   6.593  -3.086  1.00  0.00     0.014 C 
HETATM   23  C   UNL     1      14.134   5.825  -4.171  1.00  0.00     0.002 C 
HETATM   24  C   UNL     1      13.405   4.550  -3.720  1.00  0.00     0.014 C 
ENDBRANCH  18  21
ENDBRANCH   3  17
TORSDOF 7
