REMARK  6 active torsions:
REMARK  status: ('A' for Active; 'I' for Inactive)
REMARK    1  A    between atoms: C_2  and  O_3 
REMARK    2  A    between atoms: O_3  and  C_4 
REMARK    3  A    between atoms: C_4  and  C_6 
REMARK    4  A    between atoms: C_9  and  C_10 
REMARK    5  A    between atoms: C_10  and  C_11 
REMARK       I    between atoms: C_11  and  N_13 
REMARK    6  A    between atoms: N_13  and  C_14 
ROOT
HETATM    1  C   UNL     1       5.810   1.969   1.790  1.00  0.00     0.080 A 
HETATM    2  N   UNL     1       5.883   3.285   1.855  1.00  0.00    -0.354 N 
ATOM      3  HN  UNL     1       6.360   3.875   1.173  1.00  0.00     0.166 HD
HETATM    4  C   UNL     1       5.221   3.754   2.980  1.00  0.00     0.025 A 
HETATM    5  C   UNL     1       4.685   2.766   3.784  1.00  0.00     0.077 A 
HETATM    6  S   UNL     1       4.993   1.222   3.111  1.00  0.00    -0.084 SA
ENDROOT
BRANCH   4   7
HETATM    7  C   UNL     1       5.127   5.227   3.187  1.00  0.00     0.160 C 
BRANCH   7   8
HETATM    8  C   UNL     1       5.692   5.641   4.532  1.00  0.00     0.224 C 
HETATM    9  O   UNL     1       5.037   5.545   5.566  1.00  0.00    -0.273 OA
HETATM   10  N   UNL     1       6.987   6.114   4.499  1.00  0.00    -0.350 N 
HETATM   11  H   UNL     1       7.514   5.980   3.643  1.00  0.00     0.163 HD
BRANCH  10  12
HETATM   12  C   UNL     1       7.699   6.564   5.702  1.00  0.00     0.052 C 
HETATM   13  C   UNL     1       7.059   7.846   6.262  1.00  0.00     0.041 C 
HETATM   14  C   UNL     1       9.176   6.820   5.402  1.00  0.00     0.059 C 
HETATM   15  C   UNL     1       9.906   6.442   6.679  1.00  0.00     0.170 C 
HETATM   16  O   UNL     1       8.988   5.759   7.535  1.00  0.00    -0.389 OA
HETATM   17  C   UNL     1       7.798   5.483   6.784  1.00  0.00     0.198 C 
ENDBRANCH  10  12
ENDBRANCH   7   8
ENDBRANCH   4   7
BRANCH   1  18
HETATM   18  C   UNL     1       6.399   1.115   0.687  1.00  0.00     0.174 C 
HETATM   19  C   UNL     1       7.665   1.766   0.130  1.00  0.00     0.046 C 
BRANCH  18  20
HETATM   20  O   UNL     1       5.382   0.984  -0.317  1.00  0.00    -0.380 OA
BRANCH  20  21
HETATM   21  C   UNL     1       5.715   0.076  -1.363  1.00  0.00     0.164 C 
HETATM   22  C   UNL     1       4.521  -0.062  -2.287  1.00  0.00     0.033 C 
ENDBRANCH  20  21
ENDBRANCH  18  20
ENDBRANCH   1  18
TORSDOF 6
