REMARK  2 active torsions:
REMARK  status: ('A' for Active; 'I' for Inactive)
REMARK       I    between atoms: N_1  and  C_2 
REMARK    1  A    between atoms: C_2  and  C_4 
REMARK    2  A    between atoms: N_6  and  C_10 
ROOT
HETATM    1  C   UNL     1       5.291  -0.334  -2.185  1.00  0.00     0.104 A 
HETATM    2  C   UNL     1       5.545  -0.818  -3.470  1.00  0.00     0.050 A 
HETATM    3  C   UNL     1       5.851   0.053  -4.520  1.00  0.00     0.030 A 
HETATM    4  C   UNL     1       5.913   1.416  -4.278  1.00  0.00     0.071 A 
HETATM    5 CL   UNL     1       6.302   2.473  -5.579  1.00  0.00    -0.081 Cl
HETATM    6  C   UNL     1       5.670   1.842  -2.984  1.00  0.00     0.137 A 
HETATM    7  C   UNL     1       5.734   3.232  -2.621  1.00  0.00     0.119 C 
HETATM    8  N   UNL     1       5.810   4.363  -2.364  1.00  0.00    -0.190 NA
HETATM    9  N   UNL     1       5.374   0.993  -1.957  1.00  0.00    -0.333 N 
ATOM     10  HN  UNL     1       5.216   1.361  -1.019  1.00  0.00     0.168 HD
ENDROOT
BRANCH   1  11
HETATM   11  N   UNL     1       5.009  -1.166  -1.123  1.00  0.00    -0.362 N 
HETATM   12  C   UNL     1       4.731  -0.587   0.211  1.00  0.00     0.166 C 
HETATM   13  C   UNL     1       3.280  -0.861   0.665  1.00  0.00     0.230 C 
HETATM   14  O   UNL     1       2.888  -2.237   0.498  1.00  0.00    -0.373 OA
HETATM   15  C   UNL     1       3.127  -2.713  -0.834  1.00  0.00     0.189 C 
HETATM   16  C   UNL     1       4.597  -2.567  -1.245  1.00  0.00     0.150 C 
BRANCH  13  17
HETATM   17  C   UNL     1       2.285   0.167   0.095  1.00  0.00     0.246 C 
HETATM   18  N   UNL     1       1.003  -0.291  -0.047  1.00  0.00    -0.368 N 
HETATM   19  H   UNL     1       0.293   0.361  -0.349  1.00  0.00     0.159 HD
HETATM   20  H   UNL     1       0.745  -1.221   0.259  1.00  0.00     0.159 HD
HETATM   21  O   UNL     1       2.545   1.342  -0.136  1.00  0.00    -0.271 OA
ENDBRANCH  13  17
ENDBRANCH   1  11
TORSDOF 2
