REMARK  8 active torsions:
REMARK  status: ('A' for Active; 'I' for Inactive)
REMARK    1  A    between atoms: O_2  and  C_3 
REMARK    2  A    between atoms: C_6  and  C_7 
REMARK    3  A    between atoms: C_7  and  O_8 
REMARK    4  A    between atoms: O_8  and  C_9 
REMARK    5  A    between atoms: C_9  and  C_10 
REMARK    6  A    between atoms: C_10  and  O_11 
REMARK    7  A    between atoms: C_10  and  C_12 
REMARK    8  A    between atoms: C_12  and  N_13 
ROOT
HETATM    1  C   UNL     1       7.911   1.003   6.625  1.00  0.00     0.160 C 
ENDROOT
BRANCH   1   2
HETATM    2  C   UNL     1       7.139   2.099   5.877  1.00  0.00     0.201 C 
BRANCH   2   3
HETATM    3  O   UNL     1       6.229   1.461   4.972  1.00  0.00    -0.384 OA
BRANCH   3   4
HETATM    4  C   UNL     1       5.401   2.410   4.298  1.00  0.00     0.206 C 
BRANCH   4   5
HETATM    5  C   UNL     1       4.381   1.674   3.471  1.00  0.00    -0.034 A 
HETATM    6  C   UNL     1       3.482   0.791   4.084  1.00  0.00     0.012 A 
HETATM    7  C   UNL     1       2.480   0.159   3.343  1.00  0.00     0.037 A 
HETATM    8  C   UNL     1       2.357   0.413   1.977  1.00  0.00     0.068 A 
HETATM    9  C   UNL     1       3.277   1.249   1.347  1.00  0.00     0.037 A 
HETATM   10  C   UNL     1       4.278   1.886   2.088  1.00  0.00     0.012 A 
BRANCH   8  11
HETATM   11  O   UNL     1       1.392  -0.133   1.175  1.00  0.00    -0.356 OA
HETATM   12  C   UNL     1       0.129  -0.310   1.813  1.00  0.00     0.210 C 
ENDBRANCH   8  11
ENDBRANCH   4   5
ENDBRANCH   3   4
ENDBRANCH   2   3
ENDBRANCH   1   2
BRANCH   1  13
HETATM   13  O   UNL     1       6.946   0.179   7.296  1.00  0.00    -0.392 OA
HETATM   14  H   UNL     1       6.254  -0.024   6.636  1.00  0.00     0.210 HD
ENDBRANCH   1  13
BRANCH   1  15
HETATM   15  C   UNL     1       8.758   0.156   5.666  1.00  0.00     0.164 C 
BRANCH  15  16
HETATM   16  N   UNL     1       9.448  -0.932   6.339  1.00  0.00    -0.339 N 
HETATM   17  C   UNL     1       8.933  -2.193   6.485  1.00  0.00     0.184 A 
HETATM   18  N   UNL     1       9.770  -2.994   7.101  1.00  0.00    -0.350 N 
HETATM   19  C   UNL     1      10.867  -2.222   7.380  1.00  0.00     0.063 A 
ATOM     20  HN  UNL     1       9.633  -3.980   7.324  1.00  0.00     0.166 HD
HETATM   21  C   UNL     1      12.049  -2.582   8.042  1.00  0.00     0.077 A 
HETATM   22  C   UNL     1      10.700  -0.918   6.905  1.00  0.00     0.065 A 
HETATM   23  C   UNL     1      13.034  -1.609   8.203  1.00  0.00     0.157 A 
HETATM   24  F   UNL     1      14.171  -1.933   8.834  1.00  0.00    -0.203 F 
HETATM   25  C   UNL     1      12.854  -0.316   7.719  1.00  0.00     0.157 A 
HETATM   26  F   UNL     1      13.823   0.595   7.891  1.00  0.00    -0.203 F 
HETATM   27  C   UNL     1      11.684   0.067   7.058  1.00  0.00     0.077 A 
ENDBRANCH  15  16
ENDBRANCH   1  15
TORSDOF 8
