REMARK  4 active torsions:
REMARK  status: ('A' for Active; 'I' for Inactive)
REMARK    1  A    between atoms: O_2  and  C_3 
REMARK    2  A    between atoms: C_9  and  N_10 
REMARK       I    between atoms: N_10  and  C_11 
REMARK       I    between atoms: C_11  and  N_13 
REMARK    3  A    between atoms: N_13  and  C_14 
REMARK    4  A    between atoms: C_17  and  O_18 
ROOT
HETATM    1  N   UNL     1       2.645  -2.725  -0.941  1.00  0.00    -0.305 N 
HETATM    2  C   UNL     1       1.835  -2.563   0.163  1.00  0.00     0.321 C 
HETATM    3  O   UNL     1       2.045  -1.806   1.101  1.00  0.00    -0.247 OA
HETATM    4  N   UNL     1       0.689  -3.325   0.102  1.00  0.00    -0.338 N 
HETATM    5  H   UNL     1       2.504  -3.535  -1.530  1.00  0.00     0.171 HD
HETATM    6  H   UNL     1       0.691  -4.123  -0.513  1.00  0.00     0.164 HD
ENDROOT
BRANCH   1   7
HETATM    7  C   UNL     1       3.834  -1.994  -1.190  1.00  0.00     0.087 A 
HETATM    8  C   UNL     1       4.798  -2.472  -2.088  1.00  0.00     0.169 A 
HETATM    9  N   UNL     1       5.975  -1.848  -2.343  1.00  0.00    -0.345 N 
HETATM   10  C   UNL     1       6.216  -0.699  -1.679  1.00  0.00     0.090 A 
ATOM     11  HN  UNL     1       6.648  -2.231  -3.007  1.00  0.00     0.167 HD
HETATM   12  C   UNL     1       5.323  -0.129  -0.794  1.00  0.00     0.019 A 
HETATM   13  C   UNL     1       4.116  -0.781  -0.559  1.00  0.00     0.035 A 
BRANCH   8  14
HETATM   14  O   UNL     1       4.538  -3.668  -2.741  1.00  0.00    -0.339 OA
HETATM   15  C   UNL     1       5.735  -4.254  -3.259  1.00  0.00     0.211 C 
ENDBRANCH   8  14
ENDBRANCH   1   7
BRANCH   4  16
HETATM   16  C   UNL     1      -0.290  -3.281   1.194  1.00  0.00     0.086 C 
HETATM   17  C   UNL     1       0.030  -4.303   2.292  1.00  0.00     0.028 C 
HETATM   18  C   UNL     1      -0.214  -5.745   1.840  1.00  0.00     0.034 C 
HETATM   19  C   UNL     1      -1.602  -5.956   1.231  1.00  0.00     0.118 C 
HETATM   20  C   UNL     1      -1.960  -4.904   0.180  1.00  0.00     0.034 C 
HETATM   21  C   UNL     1      -1.714  -3.477   0.669  1.00  0.00     0.028 C 
BRANCH  19  22
HETATM   22  O   UNL     1      -2.589  -5.974   2.259  1.00  0.00    -0.396 OA
HETATM   23  H   UNL     1      -2.647  -5.094   2.665  1.00  0.00     0.210 HD
ENDBRANCH  19  22
ENDBRANCH   4  16
TORSDOF 4
