REMARK  6 active torsions:
REMARK  status: ('A' for Active; 'I' for Inactive)
REMARK    1  A    between atoms: O_2  and  C_3 
REMARK    2  A    between atoms: C_3  and  C_4 
REMARK    3  A    between atoms: C_4  and  O_5 
REMARK    4  A    between atoms: O_5  and  C_6 
REMARK    5  A    between atoms: C_9  and  N_10 
REMARK       I    between atoms: N_10  and  C_11 
REMARK    6  A    between atoms: C_11  and  C_13 
ROOT
HETATM    1  C   UNL     1       6.418  -2.827  -0.008  1.00  0.00     0.141 A 
HETATM    2  C   UNL     1       7.255  -1.750  -0.220  1.00  0.00     0.058 A 
HETATM    3  C   UNL     1       8.603  -1.996  -0.465  1.00  0.00     0.035 A 
HETATM    4  C   UNL     1       9.076  -3.307  -0.536  1.00  0.00     0.050 A 
HETATM    5  C   UNL     1       8.153  -4.318  -0.279  1.00  0.00     0.119 A 
HETATM    6  N   UNL     1       6.837  -4.111  -0.018  1.00  0.00    -0.345 N 
ATOM      7  HN  UNL     1       6.198  -4.885   0.161  1.00  0.00     0.167 HD
ENDROOT
BRANCH   4   8
HETATM    8  N   UNL     1      10.416  -3.635  -0.861  1.00  0.00    -0.326 N 
HETATM    9  C   UNL     1      11.304  -2.766  -1.475  1.00  0.00     0.226 C 
HETATM   10  O   UNL     1      11.005  -1.643  -1.871  1.00  0.00    -0.273 OA
HETATM   11  H   UNL     1      10.679  -4.612  -0.802  1.00  0.00     0.169 HD
BRANCH   9  12
HETATM   12  C   UNL     1      12.709  -3.326  -1.704  1.00  0.00     0.082 C 
HETATM   13  C   UNL     1      13.413  -3.744  -0.411  1.00  0.00     0.040 C 
HETATM   14  C   UNL     1      13.833  -2.529   0.409  1.00  0.00     0.168 C 
HETATM   15  O   UNL     1      14.655  -1.659  -0.365  1.00  0.00    -0.391 OA
HETATM   16  C   UNL     1      13.969  -1.141  -1.505  1.00  0.00     0.168 C 
HETATM   17  C   UNL     1      13.570  -2.280  -2.439  1.00  0.00     0.040 C 
ENDBRANCH   9  12
ENDBRANCH   4   8
BRANCH   1  18
HETATM   18  O   UNL     1       5.081  -2.533   0.157  1.00  0.00    -0.334 OA
BRANCH  18  19
HETATM   19  C   UNL     1       4.365  -3.580   0.812  1.00  0.00     0.203 C 
BRANCH  19  20
HETATM   20  C   UNL     1       2.888  -3.205   0.863  1.00  0.00     0.193 C 
BRANCH  20  21
HETATM   21  O   UNL     1       2.182  -4.200   1.605  1.00  0.00    -0.394 OA
HETATM   22  C   UNL     1       0.793  -3.919   1.679  1.00  0.00     0.201 C 
ENDBRANCH  20  21
ENDBRANCH  19  20
ENDBRANCH  18  19
ENDBRANCH   1  18
TORSDOF 6
