REMARK  6 active torsions:
REMARK  status: ('A' for Active; 'I' for Inactive)
REMARK    1  A    between atoms: C_2  and  N_3 
REMARK       I    between atoms: N_3  and  C_4 
REMARK    2  A    between atoms: C_4  and  C_6 
REMARK    3  A    between atoms: C_6  and  N_7 
REMARK       I    between atoms: N_7  and  C_8 
REMARK    4  A    between atoms: C_8  and  C_10 
REMARK    5  A    between atoms: C_10  and  C_11 
REMARK    6  A    between atoms: C_14  and  C_17 
ROOT
HETATM    1  N   UNL     1       6.417   3.364   2.718  1.00  0.00    -0.352 N 
HETATM    2  C   UNL     1       7.024   2.423   3.516  1.00  0.00     0.223 C 
HETATM    3  O   UNL     1       6.381   1.588   4.149  1.00  0.00    -0.273 OA
HETATM    4  H   UNL     1       6.986   3.971   2.140  1.00  0.00     0.162 HD
ENDROOT
BRANCH   2   5
HETATM    5  C   UNL     1       8.538   2.470   3.528  1.00  0.00     0.160 C 
BRANCH   5   6
HETATM    6  C   UNL     1       9.060   3.387   4.582  1.00  0.00     0.025 A 
HETATM    7  C   UNL     1       8.798   3.326   5.938  1.00  0.00     0.077 A 
HETATM    8  S   UNL     1       9.666   4.546   6.766  1.00  0.00    -0.086 SA
HETATM    9  C   UNL     1      10.357   5.056   5.275  1.00  0.00     0.054 A 
HETATM   10  N   UNL     1       9.946   4.392   4.212  1.00  0.00    -0.356 N 
ATOM     11  HN  UNL     1      10.237   4.588   3.254  1.00  0.00     0.166 HD
BRANCH   9  12
HETATM   12  C   UNL     1      11.374   6.170   5.256  1.00  0.00     0.035 C 
HETATM   13  C   UNL     1      12.700   5.672   4.679  1.00  0.00     0.016 C 
HETATM   14  C   UNL     1      10.858   7.370   4.464  1.00  0.00     0.016 C 
ENDBRANCH   9  12
ENDBRANCH   5   6
ENDBRANCH   2   5
BRANCH   1  15
HETATM   15  C   UNL     1       4.972   3.469   2.600  1.00  0.00     0.225 C 
BRANCH  15  16
HETATM   16  C   UNL     1       4.410   2.537   1.521  1.00  0.00     0.235 C 
HETATM   17  N   UNL     1       4.644   1.198   1.748  1.00  0.00    -0.360 N 
HETATM   18  H   UNL     1       5.165   0.937   2.585  1.00  0.00     0.162 HD
HETATM   19  O   UNL     1       3.756   2.960   0.571  1.00  0.00    -0.272 OA
BRANCH  17  20
HETATM   20  C   UNL     1       4.175   0.164   0.852  1.00  0.00     0.118 C 
HETATM   21  C   UNL     1       5.164  -0.100  -0.269  1.00  0.00     0.026 C 
ENDBRANCH  17  20
ENDBRANCH  15  16
ENDBRANCH   1  15
TORSDOF 6
