REMARK  4 active torsions:
REMARK  status: ('A' for Active; 'I' for Inactive)
REMARK    1  A    between atoms: N_11  and  C_12 
REMARK    2  A    between atoms: C_12  and  C_13 
REMARK    3  A    between atoms: C_13  and  O_14 
REMARK    4  A    between atoms: C_13  and  C_15 
ROOT
HETATM    1  C   UNL     1       2.740  -2.459   0.056  1.00  0.00     0.167 C 
ENDROOT
BRANCH   1   2
HETATM    2  N   UNL     1       3.337  -1.132  -0.032  1.00  0.00    -0.332 N 
HETATM    3  C   UNL     1       3.683  -0.479  -1.198  1.00  0.00     0.080 A 
HETATM    4  C   UNL     1       3.570  -1.071  -2.556  1.00  0.00     0.089 C 
HETATM    5  N   UNL     1       4.119   0.737  -0.943  1.00  0.00    -0.344 N 
HETATM    6  C   UNL     1       4.052   0.883   0.417  1.00  0.00     0.060 A 
ATOM      7  HN  UNL     1       4.441   1.429  -1.620  1.00  0.00     0.167 HD
HETATM    8  C   UNL     1       4.391   1.993   1.205  1.00  0.00     0.032 A 
HETATM    9  C   UNL     1       3.566  -0.273   1.022  1.00  0.00     0.062 A 
HETATM   10  C   UNL     1       4.240   1.907   2.593  1.00  0.00     0.002 A 
HETATM   11  C   UNL     1       3.755   0.740   3.184  1.00  0.00     0.002 A 
HETATM   12  C   UNL     1       3.403  -0.376   2.411  1.00  0.00     0.032 A 
ENDBRANCH   1   2
BRANCH   1  13
HETATM   13  C   UNL     1       3.779  -3.596   0.108  1.00  0.00     0.172 C 
BRANCH  13  14
HETATM   14  O   UNL     1       4.565  -3.517   1.304  1.00  0.00    -0.389 OA
HETATM   15  H   UNL     1       3.976  -3.312   2.049  1.00  0.00     0.210 HD
ENDBRANCH  13  14
BRANCH  13  16
HETATM   16  C   UNL     1       3.267  -5.023   0.022  1.00  0.00     0.013 A 
HETATM   17  C   UNL     1       4.201  -6.076   0.097  1.00  0.00     0.055 A 
HETATM   18  C   UNL     1       3.790  -7.405   0.007  1.00  0.00     0.117 A 
HETATM   19  F   UNL     1       4.700  -8.384   0.088  1.00  0.00    -0.206 F 
HETATM   20  C   UNL     1       2.452  -7.729  -0.167  1.00  0.00     0.045 A 
HETATM   21  C   UNL     1       1.512  -6.705  -0.246  1.00  0.00     0.046 A 
HETATM   22  C   UNL     1       1.921  -5.372  -0.150  1.00  0.00     0.125 A 
HETATM   23  F   UNL     1       0.973  -4.429  -0.223  1.00  0.00    -0.205 F 
ENDBRANCH  13  16
ENDBRANCH   1  13
TORSDOF 4
