REMARK  4 active torsions:
REMARK  status: ('A' for Active; 'I' for Inactive)
REMARK    1  A    between atoms: N_5  and  C_6 
REMARK    2  A    between atoms: C_6  and  C_7 
REMARK    3  A    between atoms: C_7  and  C_8 
REMARK    4  A    between atoms: C_13  and  N_14 
ROOT
HETATM    1  C   UNL     3       4.981  -1.111  -1.106  1.00  0.00     0.143 A 
HETATM    2  N   UNL     3       5.751  -0.402  -1.956  1.00  0.00    -0.280 N 
ATOM      3  HN  UNL     3       5.432   0.267  -2.656  1.00  0.00     0.189 HD
HETATM    4  N   UNL     3       7.003  -0.747  -1.701  1.00  0.00    -0.263 N 
ATOM      5  HN  UNL     3       7.842  -0.396  -2.162  1.00  0.00     0.190 HD
HETATM    6  C   UNL     3       6.943  -1.654  -0.710  1.00  0.00     0.238 A 
HETATM    7  O   UNL     3       5.709  -1.886  -0.336  1.00  0.00    -0.264 OA
ENDROOT
BRANCH   1   8
HETATM    8  C   UNL     3       3.489  -1.034  -1.054  1.00  0.00     0.116 C 
BRANCH   8   9
HETATM    9  C   UNL     3       3.026  -0.556   0.325  1.00  0.00     0.274 C 
BRANCH   9  10
HETATM   10  N   UNL     3       1.570  -0.511   0.381  1.00  0.00     0.078 N 
HETATM   11  H   UNL     3       1.280  -0.167   1.325  1.00  0.00     0.312 HD
HETATM   12  H   UNL     3       1.188  -1.477   0.262  1.00  0.00     0.312 HD
ENDBRANCH   9  10
ENDBRANCH   8   9
ENDBRANCH   1   8
BRANCH   6  13
HETATM   13  N   UNL     3       8.072  -2.280  -0.142  1.00  0.00    -0.364 N 
HETATM   14  H   UNL     3       9.019  -2.053  -0.481  1.00  0.00     0.159 HD
HETATM   15  H   UNL     3       7.955  -2.969   0.614  1.00  0.00     0.159 HD
ENDBRANCH   6  13
TORSDOF 4
