REMARK  5 active torsions:
REMARK  status: ('A' for Active; 'I' for Inactive)
REMARK    1  A    between atoms: O_2  and  C_3 
REMARK    2  A    between atoms: C_3  and  C_4 
REMARK    3  A    between atoms: C_4  and  N_5 
REMARK       I    between atoms: N_5  and  C_6 
REMARK       I    between atoms: C_6  and  N_8 
REMARK    4  A    between atoms: N_8  and  C_9 
REMARK    5  A    between atoms: C_12  and  N_16 
ROOT
HETATM    1  C   UNL     1       8.272   2.221   3.899  1.00  0.00     0.051 A 
HETATM    2  C   UNL     1       8.809   3.457   4.213  1.00  0.00     0.035 A 
HETATM    3  C   UNL     1      10.194   3.584   4.361  1.00  0.00     0.051 A 
HETATM    4  C   UNL     1      11.029   2.468   4.255  1.00  0.00     0.103 A 
HETATM    5  N   UNL     1      10.497   1.248   4.024  1.00  0.00    -0.350 N 
ATOM      6  HN  UNL     1      11.090   0.419   3.993  1.00  0.00     0.166 HD
HETATM    7  C   UNL     1       9.154   1.149   3.833  1.00  0.00     0.119 A 
ENDROOT
BRANCH   1   8
HETATM    8  N   UNL     1       6.891   2.114   3.651  1.00  0.00    -0.308 N 
HETATM    9  C   UNL     1       6.406   1.393   2.579  1.00  0.00     0.320 C 
HETATM   10  N   UNL     1       5.053   1.592   2.426  1.00  0.00    -0.341 N 
HETATM   11  O   UNL     1       7.079   0.741   1.790  1.00  0.00    -0.247 OA
HETATM   12  H   UNL     1       4.512   1.537   3.278  1.00  0.00     0.164 HD
HETATM   13  H   UNL     1       6.325   2.923   3.864  1.00  0.00     0.170 HD
BRANCH  10  14
HETATM   14  C   UNL     1       4.377   1.119   1.229  1.00  0.00     0.150 C 
BRANCH  14  15
HETATM   15  C   UNL     1       4.070  -0.375   1.263  1.00  0.00     0.186 C 
BRANCH  15  16
HETATM   16  O   UNL     1       3.115  -0.624   2.301  1.00  0.00    -0.394 OA
HETATM   17  C   UNL     1       2.737  -1.995   2.332  1.00  0.00     0.201 C 
ENDBRANCH  15  16
ENDBRANCH  14  15
ENDBRANCH  10  14
ENDBRANCH   1   8
BRANCH   4  18
HETATM   18  N   UNL     1      12.392   2.583   4.460  1.00  0.00    -0.362 N 
HETATM   19  C   UNL     1      13.158   3.707   3.897  1.00  0.00     0.156 C 
HETATM   20  C   UNL     1      14.058   3.243   2.728  1.00  0.00     0.136 C 
HETATM   21  C   UNL     1      14.995   4.364   2.292  1.00  0.00     0.041 C 
HETATM   22  O   UNL     1      14.883   2.129   3.111  1.00  0.00    -0.378 OA
HETATM   23  C   UNL     1      14.066   1.006   3.501  1.00  0.00     0.136 C 
HETATM   24  C   UNL     1      15.018  -0.133   3.852  1.00  0.00     0.041 C 
HETATM   25  C   UNL     1      13.181   1.367   4.710  1.00  0.00     0.156 C 
ENDBRANCH   4  18
TORSDOF 5
