REMARK  4 active torsions:
REMARK  status: ('A' for Active; 'I' for Inactive)
REMARK       I    between atoms: C_2  and  N_3 
REMARK    1  A    between atoms: C_2  and  C_13 
REMARK    2  A    between atoms: N_3  and  C_4 
REMARK    3  A    between atoms: C_4  and  C_5 
REMARK    4  A    between atoms: C_5  and  C_6 
ROOT
HETATM    1  O   UNL     1       1.434   0.878   0.006  1.00  0.00    -0.273 OA
HETATM    2  C   UNL     1       2.320   0.025  -0.037  1.00  0.00     0.226 C 
HETATM    3  N   UNL     1       2.660  -0.595  -1.220  1.00  0.00    -0.360 N 
HETATM    4  H   UNL     1       3.446  -1.231  -1.248  1.00  0.00     0.162 HD
ENDROOT
BRANCH   2   5
HETATM    5  C   UNL     1       3.084  -0.433   1.218  1.00  0.00     0.042 C 
HETATM    6  C   UNL     1       2.546   0.346   2.449  1.00  0.00     0.024 C 
HETATM    7  C   UNL     1       3.254  -0.098   3.736  1.00  0.00    -0.013 C 
HETATM    8  C   UNL     1       4.760   0.173   3.596  1.00  0.00     0.009 C 
HETATM    9  C   UNL     1       3.016  -1.601   3.945  1.00  0.00     0.009 C 
HETATM   10  C   UNL     1       5.324  -0.608   2.397  1.00  0.00    -0.013 C 
HETATM   11  C   UNL     1       5.086  -2.111   2.625  1.00  0.00     0.009 C 
HETATM   12  C   UNL     1       4.604  -0.165   1.107  1.00  0.00     0.024 C 
HETATM   13  C   UNL     1       3.579  -2.392   2.754  1.00  0.00    -0.013 C 
HETATM   14  C   UNL     1       2.868  -1.946   1.463  1.00  0.00     0.024 C 
ENDBRANCH   2   5
BRANCH   3  15
HETATM   15  C   UNL     1       1.930  -0.288  -2.438  1.00  0.00     0.127 C 
BRANCH  15  16
HETATM   16  C   UNL     1       2.414  -1.098  -3.640  1.00  0.00     0.059 C 
BRANCH  16  17
HETATM   17  C   UNL     1       1.641  -0.773  -4.889  1.00  0.00    -0.041 A 
HETATM   18  C   UNL     1       2.035   0.263  -5.741  1.00  0.00     0.010 A 
HETATM   19  C   UNL     1       1.283   0.545  -6.879  1.00  0.00     0.018 A 
HETATM   20  C   UNL     1       0.155  -0.218  -7.127  1.00  0.00     0.087 A 
HETATM   21  N   UNL     1      -0.261  -1.222  -6.326  1.00  0.00    -0.375 N 
HETATM   22  C   UNL     1       0.486  -1.473  -5.227  1.00  0.00     0.094 A 
ATOM     23  HN  UNL     1      -1.098  -1.765  -6.539  1.00  0.00     0.164 HD
ENDBRANCH  16  17
ENDBRANCH  15  16
ENDBRANCH   3  15
TORSDOF 4
