REMARK  5 active torsions:
REMARK  status: ('A' for Active; 'I' for Inactive)
REMARK    1  A    between atoms: C_2  and  C_3 
REMARK       I    between atoms: C_2  and  N_10 
REMARK    2  A    between atoms: C_3  and  N_4 
REMARK    3  A    between atoms: N_10  and  C_11 
REMARK    4  A    between atoms: C_11  and  C_12 
REMARK    5  A    between atoms: C_12  and  C_13 
ROOT
HETATM    1  O   UNL     1       2.605  -0.290  -1.046  1.00  0.00    -0.272 OA
HETATM    2  C   UNL     1       2.091   0.076   0.011  1.00  0.00     0.235 C 
HETATM    3  N   UNL     1       2.833   0.517   1.096  1.00  0.00    -0.359 N 
HETATM    4  H   UNL     1       2.356   0.601   1.985  1.00  0.00     0.162 HD
ENDROOT
BRANCH   3   5
HETATM    5  C   UNL     1       4.289   0.407   1.122  1.00  0.00     0.128 C 
BRANCH   5   6
HETATM    6  C   UNL     1       4.866   0.890   2.452  1.00  0.00     0.076 C 
BRANCH   6   7
HETATM    7  C   UNL     1       6.371   0.839   2.482  1.00  0.00     0.010 A 
HETATM    8  C   UNL     1       7.127   1.940   2.082  1.00  0.00     0.025 A 
HETATM    9  C   UNL     1       8.516   1.856   2.130  1.00  0.00     0.003 A 
HETATM   10  C   UNL     1       9.114   0.684   2.573  1.00  0.00     0.017 A 
HETATM   11  C   UNL     1       8.291  -0.363   2.951  1.00  0.00     0.088 A 
HETATM   12  N   UNL     1       6.941  -0.311   2.912  1.00  0.00    -0.369 N 
ATOM     13  HN  UNL     1       6.373  -1.109   3.196  1.00  0.00     0.165 HD
ENDBRANCH   6   7
ENDBRANCH   5   6
ENDBRANCH   3   5
BRANCH   2  14
HETATM   14  C   UNL     1       0.569   0.189   0.224  1.00  0.00     0.229 C 
BRANCH  14  15
HETATM   15  N   UNL     1      -0.183  -0.813  -0.518  1.00  0.00    -0.334 N 
HETATM   16  C   UNL     1      -0.561  -0.572  -1.883  1.00  0.00     0.200 A 
HETATM   17  S   UNL     1      -1.309  -2.078  -2.517  1.00  0.00    -0.140 SA
HETATM   18  C   UNL     1      -1.027  -3.015  -0.998  1.00  0.00     0.178 A 
HETATM   19  C   UNL     1      -0.442  -2.059   0.015  1.00  0.00     0.230 A 
HETATM   20  O   UNL     1      -0.207  -2.368   1.178  1.00  0.00    -0.273 OA
ENDBRANCH  14  15
ENDBRANCH   2  14
TORSDOF 5
