REMARK  5 active torsions:
REMARK  status: ('A' for Active; 'I' for Inactive)
REMARK    1  A    between atoms: C_2  and  N_3 
REMARK    2  A    between atoms: C_7  and  C_8 
REMARK    3  A    between atoms: C_8  and  N_9 
REMARK       I    between atoms: N_9  and  C_10 
REMARK       I    between atoms: C_10  and  N_12 
REMARK    4  A    between atoms: N_12  and  C_13 
REMARK    5  A    between atoms: N_17  and  C_18 
ROOT
HETATM    1  N   UNL     1       7.616   0.754  -0.675  1.00  0.00    -0.342 N 
HETATM    2  C   UNL     1       8.952   0.954  -0.406  1.00  0.00     0.320 C 
HETATM    3  O   UNL     1       9.442   0.721   0.692  1.00  0.00    -0.247 OA
HETATM    4  N   UNL     1       9.612   1.483  -1.489  1.00  0.00    -0.306 N 
HETATM    5  H   UNL     1       7.413   0.424  -1.608  1.00  0.00     0.164 HD
HETATM    6  H   UNL     1       9.058   1.868  -2.239  1.00  0.00     0.171 HD
ENDROOT
BRANCH   1   7
HETATM    7  C   UNL     1       6.737   0.306   0.390  1.00  0.00     0.130 C 
BRANCH   7   8
HETATM    8  C   UNL     1       5.290   0.733   0.137  1.00  0.00     0.032 C 
HETATM    9  C   UNL     1       5.159   2.263   0.045  1.00  0.00     0.010 C 
HETATM   10  C   UNL     1       3.696   2.681  -0.073  1.00  0.00     0.031 C 
HETATM   11  C   UNL     1       2.848   2.045   1.029  1.00  0.00     0.272 C 
HETATM   12  N   UNL     1       2.963   0.580   1.097  1.00  0.00     0.088 N 
HETATM   13  C   UNL     1       4.378   0.195   1.257  1.00  0.00     0.278 C 
BRANCH  12  14
HETATM   14  C   UNL     1       2.342  -0.135  -0.029  1.00  0.00     0.268 C 
HETATM   15  C   UNL     1       0.839   0.081  -0.150  1.00  0.00     0.037 C 
ENDBRANCH  12  14
ENDBRANCH   7   8
ENDBRANCH   1   7
BRANCH   4  16
HETATM   16  C   UNL     1      10.959   1.790  -1.465  1.00  0.00     0.070 A 
HETATM   17  C   UNL     1      11.964   1.453  -0.528  1.00  0.00     0.138 A 
HETATM   18  N   UNL     1      13.155   1.959  -0.859  1.00  0.00    -0.308 N 
HETATM   19  N   UNL     1      12.907   2.635  -1.994  1.00  0.00    -0.302 N 
ATOM     20  HN  UNL     1      14.043   1.857  -0.367  1.00  0.00     0.186 HD
HETATM   21  C   UNL     1      11.609   2.543  -2.414  1.00  0.00     0.141 A 
BRANCH  19  22
HETATM   22  C   UNL     1      13.977   3.382  -2.625  1.00  0.00     0.143 C 
HETATM   23  C   UNL     1      14.765   2.529  -3.601  1.00  0.00     0.028 C 
ENDBRANCH  19  22
ENDBRANCH   4  16
TORSDOF 5
