REMARK  6 active torsions:
REMARK  status: ('A' for Active; 'I' for Inactive)
REMARK    1  A    between atoms: C_6  and  O_7 
REMARK    2  A    between atoms: O_7  and  C_8 
REMARK    3  A    between atoms: C_8  and  C_9 
REMARK    4  A    between atoms: C_9  and  O_10 
REMARK    5  A    between atoms: C_9  and  C_11 
REMARK    6  A    between atoms: C_11  and  N_12 
ROOT
HETATM    1  C   UNL     1       5.606  -4.806  -0.493  1.00  0.00     0.160 C 
ENDROOT
BRANCH   1   2
HETATM    2  C   UNL     1       4.615  -3.652  -0.252  1.00  0.00     0.209 C 
BRANCH   2   3
HETATM    3  O   UNL     1       5.321  -2.410  -0.285  1.00  0.00    -0.349 OA
BRANCH   3   4
HETATM    4  C   UNL     1       4.585  -1.272  -0.091  1.00  0.00     0.069 A 
HETATM    5  C   UNL     1       5.322  -0.086  -0.125  1.00  0.00     0.037 A 
HETATM    6  C   UNL     1       4.693   1.147   0.056  1.00  0.00     0.003 A 
HETATM    7  C   UNL     1       3.318   1.204   0.269  1.00  0.00     0.007 A 
HETATM    8  C   UNL     1       2.562   0.027   0.300  1.00  0.00    -0.059 A 
HETATM    9  C   UNL     1       1.078   0.071   0.521  1.00  0.00     0.048 C 
HETATM   10  C   UNL     1       3.206  -1.209   0.127  1.00  0.00     0.043 A 
ENDBRANCH   3   4
ENDBRANCH   2   3
ENDBRANCH   1   2
BRANCH   1  11
HETATM   11  O   UNL     1       6.597  -4.850   0.544  1.00  0.00    -0.392 OA
HETATM   12  H   UNL     1       6.229  -4.474   1.361  1.00  0.00     0.210 HD
ENDBRANCH   1  11
BRANCH   1  13
HETATM   13  C   UNL     1       4.850  -6.138  -0.520  1.00  0.00     0.164 C 
BRANCH  13  14
HETATM   14  N   UNL     1       5.698  -7.272  -0.831  1.00  0.00    -0.339 N 
HETATM   15  C   UNL     1       6.361  -8.028   0.097  1.00  0.00     0.184 A 
HETATM   16  N   UNL     1       6.984  -9.042  -0.454  1.00  0.00    -0.350 N 
HETATM   17  C   UNL     1       6.733  -8.926  -1.801  1.00  0.00     0.060 A 
ATOM     18  HN  UNL     1       7.535  -9.761   0.015  1.00  0.00     0.166 HD
HETATM   19  C   UNL     1       7.169  -9.739  -2.856  1.00  0.00     0.032 A 
HETATM   20  C   UNL     1       5.926  -7.820  -2.068  1.00  0.00     0.062 A 
HETATM   21  C   UNL     1       6.780  -9.414  -4.159  1.00  0.00     0.002 A 
HETATM   22  C   UNL     1       5.971  -8.304  -4.408  1.00  0.00     0.002 A 
HETATM   23  C   UNL     1       5.526  -7.479  -3.365  1.00  0.00     0.032 A 
ENDBRANCH  13  14
ENDBRANCH   1  13
TORSDOF 6
