REMARK  2 active torsions:
REMARK  status: ('A' for Active; 'I' for Inactive)
REMARK    1  A    between atoms: C_4  and  N_5 
REMARK       I    between atoms: N_5  and  C_6 
REMARK       I    between atoms: C_6  and  N_8 
REMARK    2  A    between atoms: N_8  and  C_9 
ROOT
HETATM    1  N   UNL     1       5.676   1.701  -0.652  1.00  0.00    -0.293 N 
HETATM    2  C   UNL     1       5.624   3.020  -0.277  1.00  0.00     0.322 C 
HETATM    3  O   UNL     1       4.618   3.701  -0.130  1.00  0.00    -0.247 OA
HETATM    4  N   UNL     1       6.877   3.553  -0.068  1.00  0.00    -0.330 N 
HETATM    5  H   UNL     1       6.558   1.319  -0.949  1.00  0.00     0.172 HD
HETATM    6  H   UNL     1       7.712   2.989  -0.133  1.00  0.00     0.165 HD
ENDROOT
BRANCH   1   7
HETATM    7  C   UNL     1       4.557   0.898  -0.782  1.00  0.00     0.132 A 
HETATM    8  C   UNL     1       4.585  -0.437  -1.262  1.00  0.00     0.084 A 
HETATM    9  C   UNL     1       3.285  -0.870  -1.164  1.00  0.00     0.076 A 
HETATM   10  C   UNL     1       2.584  -2.136  -1.432  1.00  0.00     0.079 C 
HETATM   11  O   UNL     1       2.518   0.142  -0.687  1.00  0.00    -0.241 OA
HETATM   12  N   UNL     1       3.309   1.241  -0.444  1.00  0.00    -0.245 N 
ATOM     13  HN  UNL     1       3.003   2.142  -0.077  1.00  0.00     0.196 HD
ENDBRANCH   1   7
BRANCH   4  14
HETATM   14  C   UNL     1       7.035   4.971   0.227  1.00  0.00     0.178 C 
HETATM   15  C   UNL     1       6.661   5.305   1.671  1.00  0.00     0.036 C 
HETATM   16  C   UNL     1       6.860   6.797   1.910  1.00  0.00     0.022 C 
HETATM   17  C   UNL     1       8.310   7.177   1.655  1.00  0.00     0.122 C 
HETATM   18  N   UNL     1       8.830   6.659   0.406  1.00  0.00    -0.359 N 
HETATM   19  C   UNL     1       8.472   5.422  -0.076  1.00  0.00     0.240 C 
HETATM   20  H   UNL     1       9.779   6.915   0.158  1.00  0.00     0.162 HD
HETATM   21  O   UNL     1       9.248   4.778  -0.780  1.00  0.00    -0.271 OA
ENDBRANCH   4  14
TORSDOF 2
