REMARK  6 active torsions:
REMARK  status: ('A' for Active; 'I' for Inactive)
REMARK    1  A    between atoms: N_5  and  C_6 
REMARK    2  A    between atoms: C_6  and  C_7 
REMARK    3  A    between atoms: C_7  and  O_8 
REMARK    4  A    between atoms: C_7  and  C_9 
REMARK    5  A    between atoms: C_9  and  O_10 
REMARK    6  A    between atoms: O_10  and  C_11 
ROOT
HETATM    1  C   UNL     1       5.497   1.671  -0.097  1.00  0.00     0.168 C 
ENDROOT
BRANCH   1   2
HETATM    2  N   UNL     1       4.385   0.754  -0.139  1.00  0.00    -0.295 N 
HETATM    3  C   UNL     1       3.825   0.119   0.992  1.00  0.00     0.329 A 
HETATM    4  N   UNL     1       2.776  -0.694   0.508  1.00  0.00    -0.302 N 
HETATM    5  O   UNL     1       4.198   0.239   2.149  1.00  0.00    -0.246 OA
HETATM    6  C   UNL     1       1.950  -1.554   1.302  1.00  0.00     0.161 C 
HETATM    7  C   UNL     1       2.682  -0.538  -0.881  1.00  0.00     0.065 A 
HETATM    8  C   UNL     1       3.670   0.365  -1.281  1.00  0.00     0.066 A 
HETATM    9  C   UNL     1       1.819  -1.123  -1.784  1.00  0.00     0.032 A 
HETATM   10  C   UNL     1       3.830   0.727  -2.603  1.00  0.00     0.032 A 
HETATM   11  C   UNL     1       2.960   0.145  -3.534  1.00  0.00     0.002 A 
HETATM   12  C   UNL     1       1.968  -0.771  -3.130  1.00  0.00     0.002 A 
ENDBRANCH   1   2
BRANCH   1  13
HETATM   13  C   UNL     1       5.070   3.142   0.043  1.00  0.00     0.161 C 
BRANCH  13  14
HETATM   14  O   UNL     1       4.332   3.352   1.256  1.00  0.00    -0.392 OA
HETATM   15  H   UNL     1       4.798   2.908   1.987  1.00  0.00     0.210 HD
ENDBRANCH  13  14
BRANCH  13  16
HETATM   16  C   UNL     1       6.309   4.055   0.025  1.00  0.00     0.209 C 
BRANCH  16  17
HETATM   17  O   UNL     1       5.872   5.416   0.062  1.00  0.00    -0.345 OA
BRANCH  17  18
HETATM   18  C   UNL     1       6.828   6.392   0.086  1.00  0.00     0.107 A 
HETATM   19  C   UNL     1       6.313   7.687   0.205  1.00  0.00     0.040 A 
HETATM   20  C   UNL     1       7.160   8.798   0.215  1.00  0.00     0.003 A 
HETATM   21  C   UNL     1       8.538   8.622   0.108  1.00  0.00     0.003 A 
HETATM   22  C   UNL     1       9.064   7.336  -0.000  1.00  0.00     0.045 A 
HETATM   23  C   UNL     1       8.212   6.230  -0.009  1.00  0.00     0.149 A 
HETATM   24  F   UNL     1       8.771   5.016  -0.120  1.00  0.00    -0.203 F 
ENDBRANCH  17  18
ENDBRANCH  16  17
ENDBRANCH  13  16
ENDBRANCH   1  13
TORSDOF 6
