REMARK  6 active torsions:
REMARK  status: ('A' for Active; 'I' for Inactive)
REMARK    1  A    between atoms: N_2  and  C_3 
REMARK    2  A    between atoms: N_4  and  C_18 
REMARK    3  A    between atoms: C_13  and  C_24 
REMARK    4  A    between atoms: C_18  and  C_19 
REMARK    5  A    between atoms: C_19  and  C_23 
REMARK    6  A    between atoms: C_23  and  O_25 
ROOT
HETATM    1  C   UNL     1       0.422  -0.692   0.132  1.00  0.00     0.122 A 
HETATM    2  C   UNL     1      -0.782  -1.461   0.079  1.00  0.00     0.136 A 
HETATM    3  N   UNL     1       1.585   1.191   0.079  1.00  0.00    -0.326 N 
HETATM    4  C   UNL     1       0.303   0.691   0.057  1.00  0.00     0.140 A 
HETATM    5  N   UNL     1       1.764  -1.030   0.221  1.00  0.00    -0.346 N 
ATOM      6  HN  UNL     1       2.160  -1.967   0.293  1.00  0.00     0.167 HD
HETATM    7  C   UNL     1       2.423   0.114   0.193  1.00  0.00     0.185 A 
HETATM    8  N   UNL     1      -1.935  -0.745  -0.084  1.00  0.00    -0.337 N 
ATOM      9  HN  UNL     1      -2.827  -1.233  -0.168  1.00  0.00     0.168 HD
HETATM   10  N   UNL     1      -0.826   1.409  -0.064  1.00  0.00    -0.336 N 
ATOM     11  HN  UNL     1      -0.864   2.428  -0.098  1.00  0.00     0.168 HD
HETATM   12  C   UNL     1      -1.901   0.599  -0.135  1.00  0.00     0.183 A 
ENDROOT
BRANCH   2  13
HETATM   13  N   UNL     1      -0.879  -2.857   0.161  1.00  0.00    -0.357 N 
HETATM   14  C   UNL     1      -2.230  -3.432  -0.020  1.00  0.00     0.160 C 
HETATM   15  C   UNL     1      -2.153  -4.961  -0.336  1.00  0.00     0.241 C 
HETATM   16  N   UNL     1      -1.284  -5.716   0.604  1.00  0.00     0.096 N 
HETATM   17  C   UNL     1      -3.571  -5.561  -0.326  1.00  0.00     0.037 C 
HETATM   18  C   UNL     1       0.054  -5.077   0.652  1.00  0.00     0.298 C 
HETATM   19  C   UNL     1      -1.192  -7.133   0.241  1.00  0.00     0.273 C 
HETATM   20  C   UNL     1      -0.020  -3.584   1.113  1.00  0.00     0.114 C 
HETATM   21  C   UNL     1      -2.575  -7.788   0.263  1.00  0.00     0.030 C 
HETATM   22  C   UNL     1      -3.550  -7.053  -0.650  1.00  0.00     0.004 C 
BRANCH  20  23
HETATM   23  C   UNL     1      -0.537  -3.543   2.575  1.00  0.00     0.022 C 
HETATM   24  C   UNL     1      -0.744  -2.161   3.173  1.00  0.00     0.007 C 
ENDBRANCH  20  23
ENDBRANCH   2  13
BRANCH   3  25
HETATM   25  C   UNL     1       1.971   2.606   0.017  1.00  0.00     0.143 C 
BRANCH  25  26
HETATM   26  C   UNL     1       2.213   3.190  -1.421  1.00  0.00     0.001 C 
HETATM   27  C   UNL     1       3.516   2.602  -2.016  1.00  0.00     0.039 C 
HETATM   28  C   UNL     1       4.756   3.254  -1.402  1.00  0.00     0.168 C 
HETATM   29  O   UNL     1       4.761   4.643  -1.704  1.00  0.00    -0.391 OA
HETATM   30  C   UNL     1       3.692   5.333  -1.070  1.00  0.00     0.168 C 
HETATM   31  C   UNL     1       2.338   4.748  -1.447  1.00  0.00     0.039 C 
BRANCH  26  32
HETATM   32  C   UNL     1       0.989   2.868  -2.317  1.00  0.00     0.175 C 
BRANCH  32  33
HETATM   33  O   UNL     1      -0.186   3.482  -1.788  1.00  0.00    -0.400 OA
HETATM   34  H   UNL     1      -0.543   2.889  -1.094  1.00  0.00     0.209 HD
ENDBRANCH  32  33
ENDBRANCH  26  32
ENDBRANCH  25  26
ENDBRANCH   3  25
TORSDOF 6
