REMARK  3 active torsions:
REMARK  status: ('A' for Active; 'I' for Inactive)
REMARK    1  A    between atoms: C_6  and  N_7 
REMARK       I    between atoms: N_7  and  C_8 
REMARK    2  A    between atoms: C_8  and  C_10 
REMARK    3  A    between atoms: C_10  and  N_11 
ROOT
HETATM    1  N   UNL     1       3.072  -3.130  -2.325  1.00  0.00    -0.355 N 
HETATM    2  C   UNL     1       2.368  -3.877  -3.249  1.00  0.00     0.237 C 
HETATM    3  O   UNL     1       1.343  -3.473  -3.795  1.00  0.00    -0.272 OA
HETATM    4  H   UNL     1       3.980  -3.441  -2.003  1.00  0.00     0.162 HD
ENDROOT
BRANCH   1   5
HETATM    5  C   UNL     1       2.617  -1.804  -1.918  1.00  0.00     0.088 C 
HETATM    6  C   UNL     1       3.176  -0.740  -2.874  1.00  0.00     0.025 C 
HETATM    7  C   UNL     1       2.732   0.666  -2.484  1.00  0.00     0.002 C 
HETATM    8  C   UNL     1       3.069   0.984  -1.029  1.00  0.00     0.005 C 
HETATM    9  C   UNL     1       2.531  -0.067  -0.043  1.00  0.00    -0.013 C 
HETATM   10  C   UNL     1       1.007   0.053   0.100  1.00  0.00     0.010 C 
HETATM   11  C   UNL     1       3.012  -1.484  -0.457  1.00  0.00     0.008 C 
HETATM   12  C   UNL     1       2.526  -2.560   0.521  1.00  0.00     0.012 C 
ENDBRANCH   1   5
BRANCH   2  13
HETATM   13  C   UNL     1       2.932  -5.244  -3.542  1.00  0.00     0.249 C 
BRANCH  13  14
HETATM   14  N   UNL     1       1.992  -6.274  -3.182  1.00  0.00    -0.264 N 
HETATM   15  C   UNL     1       0.771  -6.544  -3.713  1.00  0.00     0.213 A 
HETATM   16  N   UNL     1       0.291  -7.615  -3.124  1.00  0.00    -0.281 N 
HETATM   17  N   UNL     1       1.248  -8.004  -2.214  1.00  0.00    -0.008 NA
ATOM     18  HN  UNL     1      -0.606  -8.066  -3.304  1.00  0.00     0.184 HD
HETATM   19  N   UNL     1       2.296  -7.193  -2.251  1.00  0.00    -0.005 NA
ENDBRANCH  13  14
ENDBRANCH   2  13
TORSDOF 3
