REMARK  7 active torsions:
REMARK  status: ('A' for Active; 'I' for Inactive)
REMARK    1  A    between atoms: O_1  and  C_2 
REMARK    2  A    between atoms: C_2  and  C_3 
REMARK    3  A    between atoms: C_2  and  C_10 
REMARK    4  A    between atoms: C_3  and  N_4 
REMARK    5  A    between atoms: C_10  and  N_11 
REMARK    6  A    between atoms: C_14  and  C_23 
REMARK    7  A    between atoms: C_16  and  C_19 
ROOT
HETATM    1  N   UNL     1       4.547  -1.332   0.227  1.00  0.00    -0.254 N 
HETATM    2  N   UNL     1       5.216  -0.461   1.069  1.00  0.00    -0.299 N 
ATOM      3  HN  UNL     1       4.724   0.098   1.766  1.00  0.00     0.187 HD
HETATM    4  C   UNL     1       6.497  -0.394   0.924  1.00  0.00     0.031 C 
HETATM    5  C   UNL     1       7.271  -1.093  -0.108  1.00  0.00     0.049 C 
HETATM    6  C   UNL     1       6.615  -2.003  -0.840  1.00  0.00     0.119 C 
HETATM    7  C   UNL     1       5.197  -2.287  -0.551  1.00  0.00     0.277 C 
HETATM    8  O   UNL     1       4.650  -3.293  -0.989  1.00  0.00    -0.266 OA
ENDROOT
BRANCH   1   9
HETATM    9  C   UNL     1       3.091  -1.360   0.328  1.00  0.00     0.186 C 
BRANCH   9  10
HETATM   10  C   UNL     1       2.445  -0.040  -0.122  1.00  0.00     0.166 C 
BRANCH  10  11
HETATM   11  O   UNL     1       2.759   0.244  -1.494  1.00  0.00    -0.392 OA
HETATM   12  H   UNL     1       2.097   0.908  -1.773  1.00  0.00     0.210 HD
ENDBRANCH  10  11
BRANCH  10  13
HETATM   13  C   UNL     1       0.908  -0.135   0.014  1.00  0.00     0.305 C 
BRANCH  13  14
HETATM   14  N   UNL     1       0.194   1.091  -0.422  1.00  0.00     0.095 N 
HETATM   15  C   UNL     1       0.494   2.278   0.413  1.00  0.00     0.298 C 
HETATM   16  C   UNL     1      -0.081   2.203   1.837  1.00  0.00     0.198 C 
HETATM   17  O   UNL     1      -1.499   1.996   1.816  1.00  0.00    -0.388 OA
HETATM   18  C   UNL     1      -1.840   0.821   1.070  1.00  0.00     0.198 C 
HETATM   19  C   UNL     1      -1.278   0.881  -0.363  1.00  0.00     0.298 C 
ENDBRANCH  13  14
ENDBRANCH  10  13
ENDBRANCH   9  10
ENDBRANCH   1   9
BRANCH   4  20
HETATM   20  C   UNL     1       7.266   0.443   1.876  1.00  0.00     0.037 A 
HETATM   21  C   UNL     1       6.753   1.810   2.268  1.00  0.00     0.011 A 
HETATM   22  C   UNL     1       7.996   1.691   1.443  1.00  0.00     0.011 A 
ENDBRANCH   4  20
BRANCH   6  23
HETATM   23  C   UNL     1       7.228  -2.718  -1.981  1.00  0.00     0.422 C 
HETATM   24  F   UNL     1       6.410  -3.506  -2.719  1.00  0.00    -0.166 F 
HETATM   25  F   UNL     1       7.773  -1.827  -2.858  1.00  0.00    -0.166 F 
HETATM   26  F   UNL     1       8.259  -3.505  -1.571  1.00  0.00    -0.166 F 
ENDBRANCH   6  23
TORSDOF 7
