REMARK  8 active torsions:
REMARK  status: ('A' for Active; 'I' for Inactive)
REMARK    1  A    between atoms: O_2  and  C_3 
REMARK    2  A    between atoms: C_8  and  O_9 
REMARK    3  A    between atoms: O_9  and  C_10 
REMARK    4  A    between atoms: C_10  and  C_11 
REMARK    5  A    between atoms: C_11  and  N_12 
REMARK    6  A    between atoms: C_13  and  C_14 
REMARK    7  A    between atoms: C_14  and  N_15 
REMARK    8  A    between atoms: N_15  and  C_16 
ROOT
HETATM    1  N   UNL     1       0.682  -2.608   2.809  1.00  0.00    -0.331 N 
HETATM    2  C   UNL     1      -0.447  -3.140   3.423  1.00  0.00     0.102 A 
HETATM    3  N   UNL     1      -0.890  -2.337   4.379  1.00  0.00    -0.343 N 
ATOM      4  HN  UNL     1      -1.732  -2.457   4.942  1.00  0.00     0.167 HD
HETATM    5  C   UNL     1       0.012  -1.315   4.455  1.00  0.00     0.060 A 
HETATM    6  C   UNL     1       0.039  -0.225   5.343  1.00  0.00     0.032 A 
HETATM    7  C   UNL     1       1.072   0.711   5.246  1.00  0.00     0.002 A 
HETATM    8  C   UNL     1       2.076   0.548   4.301  1.00  0.00     0.002 A 
HETATM    9  C   UNL     1       2.073  -0.548   3.432  1.00  0.00     0.032 A 
HETATM   10  C   UNL     1       1.018  -1.464   3.504  1.00  0.00     0.062 A 
ENDROOT
BRANCH   1  11
HETATM   11  C   UNL     1       1.386  -3.236   1.694  1.00  0.00     0.157 C 
BRANCH  11  12
HETATM   12  C   UNL     1       2.035  -2.343   0.620  1.00  0.00     0.196 C 
BRANCH  12  13
HETATM   13  O   UNL     1       3.371  -1.971   0.984  1.00  0.00    -0.347 OA
BRANCH  13  14
HETATM   14  C   UNL     1       3.959  -0.923   0.311  1.00  0.00     0.102 A 
HETATM   15  C   UNL     1       3.679  -0.478  -0.989  1.00  0.00     0.101 A 
HETATM   16  C   UNL     1       4.393   0.613  -1.514  1.00  0.00     0.039 A 
HETATM   17  C   UNL     1       5.402   1.236  -0.777  1.00  0.00     0.003 A 
HETATM   18  C   UNL     1       5.695   0.786   0.503  1.00  0.00     0.003 A 
HETATM   19  C   UNL     1       4.981  -0.287   1.039  1.00  0.00     0.039 A 
BRANCH  15  20
HETATM   20  O   UNL     1       2.693  -1.100  -1.708  1.00  0.00    -0.353 OA
HETATM   21  C   UNL     1       2.947  -1.216  -3.104  1.00  0.00     0.210 C 
ENDBRANCH  15  20
ENDBRANCH  13  14
ENDBRANCH  12  13
ENDBRANCH  11  12
ENDBRANCH   1  11
BRANCH   2  22
HETATM   22  C   UNL     1      -1.074  -4.451   3.096  1.00  0.00     0.198 C 
BRANCH  22  23
HETATM   23  N   UNL     1      -2.126  -4.240   2.135  1.00  0.00    -0.361 N 
HETATM   24  H   UNL     1      -2.856  -3.581   2.384  1.00  0.00     0.162 HD
BRANCH  23  25
HETATM   25  C   UNL     1      -2.257  -5.007   1.011  1.00  0.00     0.348 C 
HETATM   26  O   UNL     1      -1.468  -5.867   0.646  1.00  0.00    -0.284 OA
ENDBRANCH  23  25
ENDBRANCH  22  23
ENDBRANCH   2  22
TORSDOF 8
