REMARK  6 active torsions:
REMARK  status: ('A' for Active; 'I' for Inactive)
REMARK    1  A    between atoms: O_3  and  C_4 
REMARK    2  A    between atoms: C_4  and  C_5 
REMARK    3  A    between atoms: C_5  and  N_6 
REMARK    4  A    between atoms: N_11  and  C_13 
REMARK    5  A    between atoms: C_13  and  C_14 
REMARK    6  A    between atoms: C_14  and  N_15 
ROOT
HETATM    1  N   UNL     2       4.346   1.106  -1.175  1.00  0.00    -0.274 N 
HETATM    2  N   UNL     2       5.115   2.192  -1.180  1.00  0.00    -0.307 N 
HETATM    3  C   UNL     2       6.419   1.823  -1.124  1.00  0.00     0.126 A 
HETATM    4  C   UNL     2       6.457   0.446  -1.076  1.00  0.00     0.070 A 
HETATM    5  C   UNL     2       7.481  -0.492  -1.034  1.00  0.00     0.117 A 
HETATM    6  N   UNL     2       8.718  -0.129  -1.056  1.00  0.00    -0.374 N 
ATOM      7  HN  UNL     2       8.934   0.868  -1.068  1.00  0.00     0.161 HD
HETATM    8  N   UNL     2       7.121  -1.813  -0.993  1.00  0.00    -0.338 N 
ATOM      9  HN  UNL     2       7.850  -2.526  -0.959  1.00  0.00     0.168 HD
HETATM   10  C   UNL     2       5.805  -2.202  -0.996  1.00  0.00     0.183 A 
HETATM   11  N   UNL     2       4.806  -1.271  -1.059  1.00  0.00    -0.337 N 
ATOM     12  HN  UNL     2       3.826  -1.552  -1.077  1.00  0.00     0.168 HD
HETATM   13  C   UNL     2       5.158   0.037  -1.097  1.00  0.00     0.138 A 
HETATM   14  H   UNL     2       4.762   3.173  -1.229  1.00  0.00     0.186 HD
ENDROOT
BRANCH   6  15
HETATM   15  C   UNL     2       9.813  -1.076  -1.065  1.00  0.00     0.151 C 
BRANCH  15  16
HETATM   16  C   UNL     2      11.174  -0.360  -1.108  1.00  0.00     0.292 C 
BRANCH  16  17
HETATM   17  N   UNL     2      11.431   0.601   0.001  1.00  0.00     0.090 N 
HETATM   18  C   UNL     2      12.798   1.159  -0.186  1.00  0.00     0.272 C 
HETATM   19  C   UNL     2      12.989   2.459   0.589  1.00  0.00     0.030 C 
HETATM   20  C   UNL     2      13.461   2.298   2.036  1.00  0.00     0.002 C 
HETATM   21  C   UNL     2      12.860   1.145   2.836  1.00  0.00     0.002 C 
HETATM   22  C   UNL     2      11.385   0.883   2.562  1.00  0.00     0.030 C 
HETATM   23  C   UNL     2      11.171  -0.013   1.325  1.00  0.00     0.272 C 
ENDBRANCH  16  17
ENDBRANCH  15  16
ENDBRANCH   6  15
BRANCH   1  24
HETATM   24  C   UNL     2       2.884   1.121  -1.254  1.00  0.00     0.176 C 
BRANCH  24  25
HETATM   25  C   UNL     2       2.435   1.776  -2.562  1.00  0.00     0.185 C 
BRANCH  25  26
HETATM   26  O   UNL     2       1.038   1.789  -2.628  1.00  0.00    -0.399 OA
HETATM   27  H   UNL     2       0.807   2.278  -3.460  1.00  0.00     0.209 HD
ENDBRANCH  25  26
ENDBRANCH  24  25
ENDBRANCH   1  24
TORSDOF 6
