REMARK  1 active torsions:
REMARK  status: ('A' for Active; 'I' for Inactive)
REMARK    1  A    between atoms: C_7  and  C_11 
ROOT
HETATM    1  C   UNL     2       1.707   0.905  -0.955  1.00  0.00     0.100 C 
HETATM    2  C   UNL     2       2.920   0.336  -0.290  1.00  0.00     0.144 A 
HETATM    3  N   UNL     2       3.728  -0.616  -0.808  1.00  0.00    -0.327 N 
ATOM      4  HN  UNL     2       3.634  -1.128  -1.685  1.00  0.00     0.169 HD
HETATM    5  C   UNL     2       4.694  -0.717   0.134  1.00  0.00     0.109 A 
HETATM    6  N   UNL     2       4.460   0.130   1.160  1.00  0.00    -0.247 N 
ATOM      7  HN  UNL     2       5.035   0.257   1.993  1.00  0.00     0.196 HD
HETATM    8  O   UNL     2       3.357   0.749   0.874  1.00  0.00    -0.223 OA
ENDROOT
BRANCH   5   9
HETATM    9  C   UNL     2       5.993  -1.488   0.029  1.00  0.00     0.083 C 
HETATM   10  C   UNL     2       6.174  -2.378  -1.224  1.00  0.00     0.016 C 
HETATM   11  C   UNL     2       5.463  -3.734  -1.093  1.00  0.00     0.031 C 
HETATM   12  C   UNL     2       5.899  -4.413   0.210  1.00  0.00     0.269 C 
HETATM   13  N   UNL     2       5.527  -3.559   1.346  1.00  0.00     0.084 N 
HETATM   14  C   UNL     2       6.296  -2.306   1.302  1.00  0.00     0.281 C 
HETATM   15  H   UNL     2       5.776  -4.065   2.227  1.00  0.00     0.315 HD
ENDBRANCH   5   9
TORSDOF 1
