REMARK  4 active torsions:
REMARK  status: ('A' for Active; 'I' for Inactive)
REMARK    1  A    between atoms: N_2  and  C_4 
REMARK    2  A    between atoms: N_9  and  C_10 
REMARK    3  A    between atoms: C_10  and  C_11 
REMARK       I    between atoms: C_11  and  N_13 
REMARK    4  A    between atoms: N_13  and  C_14 
ROOT
HETATM    1  C   UNL     1       5.242  -1.469   0.879  1.00  0.00     0.118 A 
HETATM    2  C   UNL     1       6.543  -2.059   0.652  1.00  0.00     0.043 A 
HETATM    3  C   UNL     1       6.731  -3.372   0.849  1.00  0.00     0.077 A 
HETATM    4  C   UNL     1       5.605  -4.240   1.296  1.00  0.00     0.247 A 
HETATM    5  O   UNL     1       5.790  -5.444   1.443  1.00  0.00    -0.268 OA
HETATM    6  N   UNL     1       4.391  -3.594   1.526  1.00  0.00    -0.314 N 
HETATM    7  C   UNL     1       4.219  -2.228   1.305  1.00  0.00     0.130 A 
ENDROOT
BRANCH   6   8
HETATM    8  C   UNL     1       3.240  -4.420   1.888  1.00  0.00     0.234 C 
BRANCH   8   9
HETATM    9  C   UNL     1       2.447  -4.854   0.646  1.00  0.00     0.236 C 
HETATM   10  O   UNL     1       2.361  -4.163  -0.367  1.00  0.00    -0.272 OA
HETATM   11  N   UNL     1       1.750  -6.038   0.809  1.00  0.00    -0.355 N 
HETATM   12  H   UNL     1       2.066  -6.676   1.531  1.00  0.00     0.162 HD
BRANCH  11  13
HETATM   13  C   UNL     1       0.922  -6.583  -0.250  1.00  0.00     0.084 C 
HETATM   14  C   UNL     1      -0.213  -7.458   0.289  1.00  0.00     0.025 C 
HETATM   15  C   UNL     1      -0.386  -8.600  -0.715  1.00  0.00     0.002 C 
HETATM   16  C   UNL     1       0.584  -8.312  -1.853  1.00  0.00     0.002 C 
HETATM   17  C   UNL     1       1.690  -7.498  -1.199  1.00  0.00     0.025 C 
ENDBRANCH  11  13
ENDBRANCH   8   9
ENDBRANCH   6   8
BRANCH   1  18
HETATM   18  N   UNL     1       5.000  -0.043   0.649  1.00  0.00    -0.114 N 
HETATM   19  O   UNL     1       3.873   0.413   0.892  1.00  0.00    -0.532 OA
HETATM   20  O   UNL     1       5.954   0.630   0.233  1.00  0.00    -0.532 OA
ENDBRANCH   1  18
TORSDOF 4
