REMARK  6 active torsions:
REMARK  status: ('A' for Active; 'I' for Inactive)
REMARK    1  A    between atoms: O_1  and  C_2 
REMARK    2  A    between atoms: C_2  and  C_3 
REMARK    3  A    between atoms: C_2  and  C_10 
REMARK    4  A    between atoms: C_3  and  N_4 
REMARK    5  A    between atoms: C_10  and  N_11 
REMARK    6  A    between atoms: C_12  and  C_21 
ROOT
HETATM    1  N   UNL     1       3.088   2.473   0.823  1.00  0.00    -0.325 N 
HETATM    2  C   UNL     1       3.578   2.376   2.113  1.00  0.00     0.194 A 
HETATM    3  N   UNL     1       3.086   3.361   2.858  1.00  0.00    -0.337 N 
ATOM      4  HN  UNL     1       3.246   3.515   3.854  1.00  0.00     0.167 HD
HETATM    5  C   UNL     1       2.323   4.126   2.023  1.00  0.00     0.060 A 
HETATM    6  C   UNL     1       1.547   5.257   2.316  1.00  0.00     0.032 A 
HETATM    7  C   UNL     1       0.856   5.889   1.275  1.00  0.00     0.002 A 
HETATM    8  C   UNL     1       0.951   5.416  -0.033  1.00  0.00     0.002 A 
HETATM    9  C   UNL     1       1.705   4.277  -0.339  1.00  0.00     0.032 A 
HETATM   10  C   UNL     1       2.362   3.639   0.723  1.00  0.00     0.063 A 
ENDROOT
BRANCH   1  11
HETATM   11  C   UNL     1       3.186   1.472  -0.233  1.00  0.00     0.164 C 
BRANCH  11  12
HETATM   12  C   UNL     1       2.350   0.221   0.087  1.00  0.00     0.164 C 
BRANCH  12  13
HETATM   13  O   UNL     1       0.970   0.577   0.157  1.00  0.00    -0.392 OA
HETATM   14  H   UNL     1       0.496  -0.212   0.482  1.00  0.00     0.210 HD
ENDBRANCH  12  13
BRANCH  12  15
HETATM   15  C   UNL     1       2.565  -0.851  -1.000  1.00  0.00     0.305 C 
BRANCH  15  16
HETATM   16  N   UNL     1       1.839  -2.123  -0.779  1.00  0.00     0.095 N 
HETATM   17  C   UNL     1       2.228  -2.833   0.461  1.00  0.00     0.298 C 
HETATM   18  C   UNL     1       3.666  -3.377   0.437  1.00  0.00     0.198 C 
HETATM   19  O   UNL     1       3.877  -4.250  -0.680  1.00  0.00    -0.388 OA
HETATM   20  C   UNL     1       3.541  -3.617  -1.920  1.00  0.00     0.198 C 
HETATM   21  C   UNL     1       2.102  -3.062  -1.904  1.00  0.00     0.298 C 
ENDBRANCH  15  16
ENDBRANCH  12  15
ENDBRANCH  11  12
ENDBRANCH   1  11
BRANCH   2  22
HETATM   22  C   UNL     1       4.473   1.277   2.604  1.00  0.00     0.449 C 
HETATM   23  F   UNL     1       4.887   0.439   1.612  1.00  0.00    -0.163 F 
HETATM   24  F   UNL     1       5.604   1.750   3.188  1.00  0.00    -0.163 F 
HETATM   25  F   UNL     1       3.853   0.481   3.516  1.00  0.00    -0.163 F 
ENDBRANCH   2  22
TORSDOF 6
