REMARK  3 active torsions:
REMARK  status: ('A' for Active; 'I' for Inactive)
REMARK    1  A    between atoms: O_1  and  C_2 
REMARK    2  A    between atoms: C_2  and  CA_4 
REMARK    3  A    between atoms: C_6  and  N_11 
ROOT
HETATM    1  CA  UNL     1       3.149  -0.996  -0.937  1.00  0.00     0.108 A 
HETATM    2  C   UNL     1       3.933  -0.608  -2.021  1.00  0.00     0.066 A 
HETATM    3  C   UNL     1       4.435  -1.574  -2.901  1.00  0.00     0.034 A 
HETATM    4  C   UNL     1       4.115  -2.902  -2.572  1.00  0.00     0.046 A 
HETATM    5  C   UNL     1       3.321  -3.203  -1.469  1.00  0.00     0.091 A 
HETATM    6  N   UNL     1       2.813  -2.279  -0.636  1.00  0.00    -0.360 N 
ATOM      7  HN  UNL     1       2.222  -2.521   0.159  1.00  0.00     0.165 HD
ENDROOT
BRANCH   3   8
HETATM    8  N   UNL     1       5.240  -1.260  -3.987  1.00  0.00    -0.377 N 
HETATM    9  C   UNL     1       5.642   0.124  -4.330  1.00  0.00     0.149 C 
HETATM   10  C   UNL     1       4.842   0.625  -5.544  1.00  0.00     0.187 C 
HETATM   11  O   UNL     1       5.018  -0.244  -6.677  1.00  0.00    -0.388 OA
HETATM   12  C   UNL     1       4.590  -1.578  -6.357  1.00  0.00     0.187 C 
HETATM   13  C   UNL     1       5.369  -2.154  -5.162  1.00  0.00     0.149 C 
ENDBRANCH   3   8
BRANCH   1  14
HETATM   14  C   UNL     1       2.605   0.032  -0.001  1.00  0.00     0.193 C 
HETATM   15  OXT UNL     1       2.805   1.230  -0.082  1.00  0.00    -0.645 OA
BRANCH  14  16
HETATM   16  O   UNL     1       1.848  -0.559   0.957  1.00  0.00    -0.772 OA
HETATM   17  H   UNL     1       1.851  -1.533   0.797  1.00  0.00     0.167 HD
ENDBRANCH  14  16
ENDBRANCH   1  14
TORSDOF 3
