REMARK  5 active torsions:
REMARK  status: ('A' for Active; 'I' for Inactive)
REMARK    1  A    between atoms: C_2  and  C_3 
REMARK    2  A    between atoms: C_2  and  C_13 
REMARK    3  A    between atoms: C_3  and  N_4 
REMARK    4  A    between atoms: N_4  and  C_5 
REMARK    5  A    between atoms: C_5  and  C_6 
ROOT
HETATM    1  C   UNL     1       2.764   0.715  -1.326  1.00  0.00     0.278 C 
ENDROOT
BRANCH   1   2
HETATM    2  C   UNL     1       2.265   0.225   0.060  1.00  0.00     0.042 C 
HETATM    3  C   UNL     1       2.598  -1.255   0.297  1.00  0.00     0.016 C 
BRANCH   2   4
HETATM    4  C   UNL     1       0.794   0.559   0.268  1.00  0.00    -0.050 A 
HETATM    5  C   UNL     1       0.435   1.825   0.738  1.00  0.00     0.024 A 
HETATM    6  C   UNL     1      -0.913   2.129   0.884  1.00  0.00     0.088 A 
HETATM    7  N   UNL     1      -1.911   1.272   0.588  1.00  0.00    -0.375 N 
HETATM    8  C   UNL     1      -1.547   0.056   0.130  1.00  0.00     0.088 A 
ATOM      9  HN  UNL     1      -2.891   1.530   0.704  1.00  0.00     0.164 HD
HETATM   10  C   UNL     1      -0.231  -0.340  -0.044  1.00  0.00     0.024 A 
ENDBRANCH   2   4
ENDBRANCH   1   2
BRANCH   1  11
HETATM   11  N   UNL     1       2.058   0.080  -2.443  1.00  0.00     0.084 N 
HETATM   12  H   UNL     1       1.058   0.281  -2.373  1.00  0.00     0.315 HD
BRANCH  11  13
HETATM   13  C   UNL     1       2.547   0.542  -3.742  1.00  0.00     0.274 C 
BRANCH  13  14
HETATM   14  C   UNL     1       1.925  -0.287  -4.889  1.00  0.00     0.022 C 
HETATM   15  C   UNL     1       2.228  -1.816  -4.748  1.00  0.00     0.015 C 
HETATM   16  C   UNL     1       3.138  -2.109  -5.964  1.00  0.00     0.009 C 
HETATM   17  C   UNL     1       3.873  -0.781  -6.174  1.00  0.00     0.017 C 
HETATM   18  C   UNL     1       2.258  -2.061  -7.182  1.00  0.00    -0.026 C 
HETATM   19  C   UNL     1       2.575   0.033  -6.265  1.00  0.00     0.014 C 
HETATM   20  C   UNL     1       1.894  -0.782  -7.352  1.00  0.00    -0.025 C 
ENDBRANCH  13  14
ENDBRANCH  11  13
ENDBRANCH   1  11
TORSDOF 5
