REMARK  6 active torsions:
REMARK  status: ('A' for Active; 'I' for Inactive)
REMARK    1  A    between atoms: O_1  and  C_2 
REMARK    2  A    between atoms: C_2  and  C_3 
REMARK    3  A    between atoms: N_12  and  C_13 
REMARK    4  A    between atoms: C_13  and  C_14 
REMARK    5  A    between atoms: C_14  and  O_15 
REMARK    6  A    between atoms: C_14  and  C_16 
ROOT
HETATM    1  C   UNL     1       2.903   1.320   0.537  1.00  0.00     0.108 A 
HETATM    2  N   UNL     1       2.393   2.451   0.087  1.00  0.00    -0.342 N 
ATOM      3  HN  UNL     1       1.697   2.560  -0.651  1.00  0.00     0.167 HD
HETATM    4  C   UNL     1       2.989   3.451   0.813  1.00  0.00     0.060 A 
HETATM    5  C   UNL     1       2.779   4.837   0.756  1.00  0.00     0.032 A 
HETATM    6  C   UNL     1       3.495   5.668   1.626  1.00  0.00     0.002 A 
HETATM    7  C   UNL     1       4.404   5.126   2.535  1.00  0.00     0.002 A 
HETATM    8  C   UNL     1       4.625   3.745   2.608  1.00  0.00     0.032 A 
HETATM    9  C   UNL     1       3.900   2.930   1.727  1.00  0.00     0.062 A 
HETATM   10  N   UNL     1       3.840   1.566   1.524  1.00  0.00    -0.330 N 
ENDROOT
BRANCH  10  11
HETATM   11  C   UNL     1       4.504   0.560   2.341  1.00  0.00     0.167 C 
BRANCH  11  12
HETATM   12  C   UNL     1       5.864   0.080   1.797  1.00  0.00     0.172 C 
BRANCH  12  13
HETATM   13  O   UNL     1       6.814   1.154   1.757  1.00  0.00    -0.389 OA
HETATM   14  H   UNL     1       6.760   1.642   2.593  1.00  0.00     0.210 HD
ENDBRANCH  12  13
BRANCH  12  15
HETATM   15  C   UNL     1       6.534  -1.052   2.560  1.00  0.00     0.013 A 
HETATM   16  C   UNL     1       7.763  -1.547   2.083  1.00  0.00     0.055 A 
HETATM   17  C   UNL     1       8.434  -2.566   2.759  1.00  0.00     0.117 A 
HETATM   18  F   UNL     1       9.607  -3.008   2.290  1.00  0.00    -0.206 F 
HETATM   19  C   UNL     1       7.907  -3.124   3.915  1.00  0.00     0.045 A 
HETATM   20  C   UNL     1       6.688  -2.659   4.399  1.00  0.00     0.046 A 
HETATM   21  C   UNL     1       6.016  -1.636   3.725  1.00  0.00     0.125 A 
HETATM   22  F   UNL     1       4.853  -1.222   4.244  1.00  0.00    -0.205 F 
ENDBRANCH  12  15
ENDBRANCH  11  12
ENDBRANCH  10  11
BRANCH   1  23
HETATM   23  C   UNL     1       2.465  -0.038   0.104  1.00  0.00     0.240 C 
BRANCH  23  24
HETATM   24  O   UNL     1       3.615  -0.804  -0.230  1.00  0.00    -0.393 OA
HETATM   25  H   UNL     1       3.289  -1.623  -0.638  1.00  0.00     0.209 HD
ENDBRANCH  23  24
ENDBRANCH   1  23
TORSDOF 6
