REMARK  4 active torsions:
REMARK  status: ('A' for Active; 'I' for Inactive)
REMARK    1  A    between atoms: C_2  and  C_3 
REMARK       I    between atoms: N_6  and  C_10 
REMARK       I    between atoms: C_10  and  N_12 
REMARK    2  A    between atoms: N_12  and  C_13 
REMARK    3  A    between atoms: C_13  and  C_14 
REMARK    4  A    between atoms: C_14  and  C_17 
ROOT
HETATM    1  C   UNL     1       2.234   4.044  -2.046  1.00  0.00     0.073 C 
HETATM    2  C   UNL     1       1.327   4.012  -3.287  1.00  0.00     0.047 C 
HETATM    3  C   UNL     1       1.543   3.240  -0.903  1.00  0.00     0.165 C 
HETATM    4  N   UNL     1       2.497   2.917   0.160  1.00  0.00    -0.329 N 
HETATM    5  C   UNL     1       3.669   2.199  -0.341  1.00  0.00     0.153 C 
HETATM    6  C   UNL     1       4.356   3.039  -1.418  1.00  0.00     0.189 C 
HETATM    7  O   UNL     1       3.459   3.403  -2.475  1.00  0.00    -0.377 OA
HETATM    8  C   UNL     1       2.227   3.264   1.473  1.00  0.00     0.318 C 
HETATM    9  O   UNL     1       1.168   3.761   1.834  1.00  0.00    -0.247 OA
HETATM   10  N   UNL     1       3.262   3.018   2.341  1.00  0.00    -0.342 N 
HETATM   11  H   UNL     1       4.154   3.208   1.923  1.00  0.00     0.164 HD
ENDROOT
BRANCH  10  12
HETATM   12  C   UNL     1       3.168   3.354   3.759  1.00  0.00     0.138 C 
BRANCH  12  13
HETATM   13  C   UNL     1       4.366   2.810   4.598  1.00  0.00    -0.004 C 
HETATM   14  C   UNL     1       4.408   1.266   4.496  1.00  0.00     0.021 C 
HETATM   15  C   UNL     1       5.706   3.316   4.001  1.00  0.00     0.021 C 
BRANCH  13  16
HETATM   16  C   UNL     1       4.208   3.278   6.061  1.00  0.00    -0.046 A 
HETATM   17  C   UNL     1       3.513   2.517   7.012  1.00  0.00     0.025 A 
HETATM   18  C   UNL     1       3.431   2.964   8.325  1.00  0.00     0.088 A 
HETATM   19  N   UNL     1       3.976   4.115   8.765  1.00  0.00    -0.375 N 
HETATM   20  C   UNL     1       4.618   4.857   7.843  1.00  0.00     0.088 A 
ATOM     21  HN  UNL     1       3.906   4.407   9.740  1.00  0.00     0.164 HD
HETATM   22  C   UNL     1       4.751   4.493   6.509  1.00  0.00     0.025 A 
ENDBRANCH  13  16
ENDBRANCH  12  13
ENDBRANCH  10  12
BRANCH   1  23
HETATM   23  C   UNL     1       2.470   5.502  -1.578  1.00  0.00     0.035 C 
HETATM   24  C   UNL     1       3.143   6.423  -2.588  1.00  0.00     0.008 C 
ENDBRANCH   1  23
TORSDOF 4
