REMARK  5 active torsions:
REMARK  status: ('A' for Active; 'I' for Inactive)
REMARK    1  A    between atoms: O_2  and  C_3 
REMARK    2  A    between atoms: C_3  and  C_4 
REMARK    3  A    between atoms: C_4  and  N_5 
REMARK    4  A    between atoms: C_7  and  N_8 
REMARK       I    between atoms: N_8  and  C_9 
REMARK    5  A    between atoms: C_9  and  C_11 
ROOT
HETATM    1  N   UNL     1       4.765   2.522  -1.135  1.00  0.00    -0.320 N 
HETATM    2  C   UNL     1       4.434   3.635  -0.377  1.00  0.00     0.123 A 
HETATM    3  C   UNL     1       4.602   4.891  -0.826  1.00  0.00     0.050 A 
HETATM    4  C   UNL     1       5.205   5.072  -2.135  1.00  0.00     0.036 A 
HETATM    5  C   UNL     1       5.548   4.017  -2.891  1.00  0.00     0.077 A 
HETATM    6  C   UNL     1       5.306   2.632  -2.412  1.00  0.00     0.247 A 
HETATM    7  O   UNL     1       5.587   1.686  -3.143  1.00  0.00    -0.268 OA
ENDROOT
BRANCH   3   8
HETATM    8  N   UNL     1       4.217   6.031  -0.150  1.00  0.00    -0.326 N 
HETATM    9  C   UNL     1       3.598   6.105   1.093  1.00  0.00     0.226 C 
HETATM   10  O   UNL     1       3.362   5.150   1.825  1.00  0.00    -0.273 OA
HETATM   11  H   UNL     1       4.381   6.911  -0.624  1.00  0.00     0.169 HD
BRANCH   9  12
HETATM   12  C   UNL     1       3.262   7.532   1.510  1.00  0.00     0.078 C 
HETATM   13  C   UNL     1       2.551   7.614   2.870  1.00  0.00     0.014 C 
HETATM   14  C   UNL     1       1.587   8.796   2.784  1.00  0.00     0.001 C 
HETATM   15  C   UNL     1       1.759   9.379   1.389  1.00  0.00     0.001 C 
HETATM   16  C   UNL     1       2.288   8.222   0.559  1.00  0.00     0.014 C 
ENDBRANCH   9  12
ENDBRANCH   3   8
BRANCH   1  17
HETATM   17  C   UNL     1       4.403   1.196  -0.630  1.00  0.00     0.158 C 
BRANCH  17  18
HETATM   18  C   UNL     1       5.601   0.299  -0.319  1.00  0.00     0.187 C 
BRANCH  18  19
HETATM   19  O   UNL     1       5.115  -0.929   0.232  1.00  0.00    -0.394 OA
HETATM   20  C   UNL     1       6.174  -1.842   0.486  1.00  0.00     0.201 C 
ENDBRANCH  18  19
ENDBRANCH  17  18
ENDBRANCH   1  17
TORSDOF 5
