REMARK  2 active torsions:
REMARK  status: ('A' for Active; 'I' for Inactive)
REMARK       I    between atoms: C_2  and  N_3 
REMARK       I    between atoms: C_2  and  N_9 
REMARK    1  A    between atoms: N_3  and  C_4 
REMARK    2  A    between atoms: N_9  and  C_10 
ROOT
HETATM    1  O   UNL     1       1.003   0.011  -0.050  1.00  0.00    -0.247 OA
HETATM    2  C   UNL     1       2.224  -0.131  -0.022  1.00  0.00     0.322 C 
HETATM    3  N   UNL     1       2.840  -1.231   0.483  1.00  0.00    -0.338 N 
HETATM    4  N   UNL     1       3.016   0.837  -0.560  1.00  0.00    -0.294 N 
HETATM    5  H   UNL     1       3.842  -1.162   0.624  1.00  0.00     0.164 HD
HETATM    6  H   UNL     1       2.484   1.591  -0.966  1.00  0.00     0.172 HD
ENDROOT
BRANCH   4   7
HETATM    7  C   UNL     1       4.412   0.901  -0.619  1.00  0.00     0.123 A 
HETATM    8  C   UNL     1       4.992   1.980  -1.269  1.00  0.00     0.051 A 
HETATM    9  C   UNL     1       6.381   2.066  -1.323  1.00  0.00     0.022 A 
HETATM   10  C   UNL     1       7.120   1.068  -0.723  1.00  0.00     0.107 A 
HETATM   11  N   UNL     1       6.544   0.027  -0.096  1.00  0.00    -0.310 N 
HETATM   12  N   UNL     1       5.179  -0.051  -0.047  1.00  0.00    -0.286 N 
ATOM     13  HN  UNL     1       7.118  -0.696   0.338  1.00  0.00     0.186 HD
ATOM     14  HN  UNL     1       4.736  -0.838   0.427  1.00  0.00     0.188 HD
ENDBRANCH   4   7
BRANCH   3  15
HETATM   15  C   UNL     1       2.133  -2.329   1.097  1.00  0.00     0.086 C 
HETATM   16  C   UNL     1       1.871  -2.118   2.591  1.00  0.00     0.025 C 
HETATM   17  C   UNL     1       1.925  -3.512   3.224  1.00  0.00     0.002 C 
HETATM   18  C   UNL     1       2.263  -4.482   2.097  1.00  0.00     0.002 C 
HETATM   19  C   UNL     1       2.942  -3.619   1.049  1.00  0.00     0.025 C 
ENDBRANCH   3  15
TORSDOF 2
