REMARK  7 active torsions:
REMARK  status: ('A' for Active; 'I' for Inactive)
REMARK    1  A    between atoms: N_2  and  C_14 
REMARK    2  A    between atoms: C_4  and  N_8 
REMARK    3  A    between atoms: N_8  and  C_13 
REMARK    4  A    between atoms: N_8  and  C_23 
REMARK    5  A    between atoms: C_14  and  C_16 
REMARK    6  A    between atoms: C_16  and  C_24 
REMARK    7  A    between atoms: C_24  and  O_25 
ROOT
HETATM    1  C   UNL     1       0.429  -0.735   0.256  1.00  0.00     0.122 A 
HETATM    2  N   UNL     1       1.504   1.197   0.146  1.00  0.00    -0.326 N 
HETATM    3  C   UNL     1       0.241   0.646   0.206  1.00  0.00     0.140 A 
HETATM    4  C   UNL     1      -0.742  -1.556   0.262  1.00  0.00     0.135 A 
HETATM    5  N   UNL     1       1.782  -1.014   0.259  1.00  0.00    -0.346 N 
ATOM      6  HN  UNL     1       2.220  -1.935   0.287  1.00  0.00     0.167 HD
HETATM    7  C   UNL     1       2.390   0.153   0.218  1.00  0.00     0.185 A 
HETATM    8  N   UNL     1      -1.937  -0.885   0.249  1.00  0.00    -0.337 N 
ATOM      9  HN  UNL     1      -2.812  -1.407   0.283  1.00  0.00     0.168 HD
HETATM   10  N   UNL     1      -0.921   1.313   0.163  1.00  0.00    -0.336 N 
ATOM     11  HN  UNL     1      -1.004   2.328   0.115  1.00  0.00     0.168 HD
HETATM   12  C   UNL     1      -1.962   0.462   0.192  1.00  0.00     0.183 A 
ENDROOT
BRANCH   4  13
HETATM   13  N   UNL     1      -0.750  -2.987   0.220  1.00  0.00    -0.361 N 
BRANCH  13  14
HETATM   14  C   UNL     1      -2.071  -3.603  -0.109  1.00  0.00     0.090 C 
HETATM   15  C   UNL     1      -2.136  -5.148   0.003  1.00  0.00     0.062 C 
HETATM   16  C   UNL     1      -1.680  -5.935  -1.239  1.00  0.00     0.055 C 
HETATM   17  O   UNL     1      -2.336  -5.432  -2.404  1.00  0.00    -0.381 OA
HETATM   18  C   UNL     1      -0.157  -5.944  -1.420  1.00  0.00     0.045 C 
HETATM   19  C   UNL     1      -2.149  -7.396  -1.118  1.00  0.00     0.045 C 
HETATM   20  C   UNL     1      -2.108  -4.053  -2.651  1.00  0.00     0.171 C 
HETATM   21  C   UNL     1      -2.594  -3.185  -1.505  1.00  0.00     0.051 C 
ENDBRANCH  13  14
BRANCH  13  22
HETATM   22  C   UNL     1       0.045  -3.551   1.335  1.00  0.00     0.120 C 
HETATM   23  C   UNL     1      -0.672  -3.528   2.686  1.00  0.00     0.026 C 
ENDBRANCH  13  22
ENDBRANCH   4  13
BRANCH   2  24
HETATM   24  C   UNL     1       1.835   2.621   0.053  1.00  0.00     0.143 C 
BRANCH  24  25
HETATM   25  C   UNL     1       1.981   3.201  -1.398  1.00  0.00     0.001 C 
HETATM   26  C   UNL     1       3.229   2.608  -2.098  1.00  0.00     0.039 C 
HETATM   27  C   UNL     1       4.521   3.216  -1.558  1.00  0.00     0.168 C 
HETATM   28  O   UNL     1       4.531   4.614  -1.821  1.00  0.00    -0.391 OA
HETATM   29  C   UNL     1       3.518   5.305  -1.102  1.00  0.00     0.168 C 
HETATM   30  C   UNL     1       2.128   4.757  -1.402  1.00  0.00     0.039 C 
BRANCH  25  31
HETATM   31  C   UNL     1       0.698   2.897  -2.210  1.00  0.00     0.175 C 
BRANCH  31  32
HETATM   32  O   UNL     1      -0.439   3.486  -1.585  1.00  0.00    -0.400 OA
HETATM   33  H   UNL     1      -0.761   2.857  -0.906  1.00  0.00     0.209 HD
ENDBRANCH  31  32
ENDBRANCH  25  31
ENDBRANCH  24  25
ENDBRANCH   2  24
TORSDOF 7
