REMARK  5 active torsions:
REMARK  status: ('A' for Active; 'I' for Inactive)
REMARK    1  A    between atoms: N_4  and  C_9 
REMARK    2  A    between atoms: C_12  and  N_13 
REMARK       I    between atoms: N_13  and  C_14 
REMARK       I    between atoms: C_14  and  N_16 
REMARK    3  A    between atoms: N_16  and  C_17 
REMARK    4  A    between atoms: C_17  and  C_18 
REMARK    5  A    between atoms: C_18  and  C_21 
REMARK       I    between atoms: C_21  and  N_23 
ROOT
HETATM    1  C   UNL     1       1.845   1.361  -3.386  1.00  0.00     0.103 A 
HETATM    2  C   UNL     1       1.070   0.875  -4.434  1.00  0.00     0.051 A 
HETATM    3  C   UNL     1       0.511   1.738  -5.374  1.00  0.00     0.035 A 
HETATM    4  C   UNL     1       0.699   3.106  -5.266  1.00  0.00     0.051 A 
HETATM    5  C   UNL     1       1.456   3.527  -4.180  1.00  0.00     0.119 A 
HETATM    6  N   UNL     1       2.020   2.697  -3.258  1.00  0.00    -0.350 N 
ATOM      7  HN  UNL     1       2.565   3.076  -2.484  1.00  0.00     0.166 HD
ENDROOT
BRANCH   4   8
HETATM    8  N   UNL     1       0.189   4.026  -6.208  1.00  0.00    -0.308 N 
HETATM    9  C   UNL     1      -0.756   3.728  -7.162  1.00  0.00     0.320 C 
HETATM   10  O   UNL     1      -1.402   2.687  -7.232  1.00  0.00    -0.247 OA
HETATM   11  N   UNL     1      -0.893   4.715  -8.113  1.00  0.00    -0.342 N 
HETATM   12  H   UNL     1      -0.751   5.669  -7.803  1.00  0.00     0.164 HD
HETATM   13  H   UNL     1       0.485   4.989  -6.136  1.00  0.00     0.170 HD
BRANCH  11  14
HETATM   14  C   UNL     1      -1.924   4.549  -9.128  1.00  0.00     0.142 C 
BRANCH  14  15
HETATM   15  C   UNL     1      -1.679   5.329 -10.435  1.00  0.00     0.049 C 
HETATM   16  C   UNL     1      -0.349   4.896 -11.075  1.00  0.00     0.027 C 
HETATM   17  C   UNL     1      -2.838   5.002 -11.395  1.00  0.00     0.027 C 
BRANCH  15  18
HETATM   18  C   UNL     1      -1.655   6.832 -10.147  1.00  0.00     0.225 C 
HETATM   19  O   UNL     1      -1.710   7.313  -9.017  1.00  0.00    -0.273 OA
HETATM   20  N   UNL     1      -1.531   7.659 -11.224  1.00  0.00    -0.369 N 
HETATM   21  H   UNL     1      -1.412   7.330 -12.172  1.00  0.00     0.159 HD
HETATM   22  H   UNL     1      -1.493   8.655 -11.051  1.00  0.00     0.159 HD
ENDBRANCH  15  18
ENDBRANCH  14  15
ENDBRANCH  11  14
ENDBRANCH   4   8
BRANCH   1  23
HETATM   23  N   UNL     1       2.398   0.513  -2.457  1.00  0.00    -0.362 N 
HETATM   24  C   UNL     1       3.135   1.042  -1.305  1.00  0.00     0.156 C 
HETATM   25  C   UNL     1       2.756   0.221  -0.046  1.00  0.00     0.136 C 
HETATM   26  C   UNL     1       1.355   0.568   0.457  1.00  0.00     0.041 C 
HETATM   27  O   UNL     1       2.899  -1.204  -0.251  1.00  0.00    -0.378 OA
HETATM   28  C   UNL     1       2.190  -1.679  -1.411  1.00  0.00     0.136 C 
HETATM   29  C   UNL     1       2.631  -0.917  -2.676  1.00  0.00     0.156 C 
HETATM   30  C   UNL     1       2.460  -3.170  -1.563  1.00  0.00     0.041 C 
ENDBRANCH   1  23
TORSDOF 5
