REMARK  4 active torsions:
REMARK  status: ('A' for Active; 'I' for Inactive)
REMARK    1  A    between atoms: C_6  and  N_7 
REMARK       I    between atoms: N_7  and  C_8 
REMARK    2  A    between atoms: C_8  and  C_10 
REMARK    3  A    between atoms: C_10  and  N_11 
REMARK    4  A    between atoms: C_13  and  N_18 
ROOT
HETATM    1  N   UNL     1       2.989  -3.176  -2.144  1.00  0.00    -0.355 N 
HETATM    2  C   UNL     1       2.258  -3.926  -3.043  1.00  0.00     0.236 C 
HETATM    3  O   UNL     1       1.182  -3.555  -3.510  1.00  0.00    -0.272 OA
HETATM    4  H   UNL     1       3.902  -3.506  -1.850  1.00  0.00     0.162 HD
ENDROOT
BRANCH   2   5
HETATM    5  C   UNL     1       2.808  -5.318  -3.331  1.00  0.00     0.234 C 
BRANCH   5   6
HETATM    6  N   UNL     1       2.334  -6.285  -2.340  1.00  0.00    -0.314 N 
HETATM    7  C   UNL     1       0.972  -6.588  -2.275  1.00  0.00     0.130 A 
HETATM    8  C   UNL     1       0.505  -7.455  -1.361  1.00  0.00     0.118 A 
HETATM    9  C   UNL     1       1.419  -8.141  -0.475  1.00  0.00     0.043 A 
HETATM   10  C   UNL     1       2.728  -7.848  -0.502  1.00  0.00     0.077 A 
HETATM   11  C   UNL     1       3.255  -6.815  -1.437  1.00  0.00     0.247 A 
HETATM   12  O   UNL     1       4.439  -6.495  -1.381  1.00  0.00    -0.268 OA
BRANCH   8  13
HETATM   13  N   UNL     1      -0.942  -7.671  -1.281  1.00  0.00    -0.114 N 
HETATM   14  O   UNL     1      -1.346  -8.452  -0.409  1.00  0.00    -0.532 OA
HETATM   15  O   UNL     1      -1.675  -7.064  -2.074  1.00  0.00    -0.532 OA
ENDBRANCH   8  13
ENDBRANCH   5   6
ENDBRANCH   2   5
BRANCH   1  16
HETATM   16  C   UNL     1       2.548  -1.843  -1.750  1.00  0.00     0.088 C 
HETATM   17  C   UNL     1       3.100  -0.797  -2.729  1.00  0.00     0.025 C 
HETATM   18  C   UNL     1       2.663   0.617  -2.359  1.00  0.00     0.002 C 
HETATM   19  C   UNL     1       3.010   0.957  -0.912  1.00  0.00     0.005 C 
HETATM   20  C   UNL     1       2.474  -0.077   0.093  1.00  0.00    -0.013 C 
HETATM   21  C   UNL     1       0.950   0.050   0.240  1.00  0.00     0.010 C 
HETATM   22  C   UNL     1       2.953  -1.501  -0.299  1.00  0.00     0.008 C 
HETATM   23  C   UNL     1       2.469  -2.561   0.698  1.00  0.00     0.012 C 
ENDBRANCH   1  16
TORSDOF 4
