REMARK  5 active torsions:
REMARK  status: ('A' for Active; 'I' for Inactive)
REMARK    1  A    between atoms: N_4  and  C_5 
REMARK    2  A    between atoms: C_5  and  C_6 
REMARK    3  A    between atoms: C_6  and  C_7 
REMARK    4  A    between atoms: C_7  and  N_8 
REMARK       I    between atoms: N_8  and  C_9 
REMARK       I    between atoms: C_9  and  N_11 
REMARK    5  A    between atoms: N_11  and  C_12 
ROOT
HETATM    1  N   UNL     1       2.874   3.902  -5.498  1.00  0.00    -0.343 N 
HETATM    2  C   UNL     1       3.367   4.783  -6.441  1.00  0.00     0.320 C 
HETATM    3  O   UNL     1       4.019   5.771  -6.126  1.00  0.00    -0.247 OA
HETATM    4  N   UNL     1       3.011   4.407  -7.716  1.00  0.00    -0.308 N 
HETATM    5  H   UNL     1       2.816   2.944  -5.813  1.00  0.00     0.164 HD
HETATM    6  H   UNL     1       2.213   3.790  -7.783  1.00  0.00     0.170 HD
ENDROOT
BRANCH   1   7
HETATM    7  C   UNL     1       3.247   4.142  -4.118  1.00  0.00     0.126 C 
BRANCH   7   8
HETATM    8  C   UNL     1       2.655   3.145  -3.134  1.00  0.00     0.050 C 
BRANCH   8   9
HETATM    9  C   UNL     1       3.248   1.743  -3.315  1.00  0.00     0.274 C 
BRANCH   9  10
HETATM   10  N   UNL     1       2.690   0.756  -2.381  1.00  0.00     0.093 N 
HETATM   11  C   UNL     1       3.030   1.055  -0.973  1.00  0.00     0.303 C 
HETATM   12  C   UNL     1       2.469  -0.010  -0.009  1.00  0.00     0.146 C 
HETATM   13  C   UNL     1       0.944   0.031   0.087  1.00  0.00     0.041 C 
HETATM   14  O   UNL     1       2.943  -1.321  -0.358  1.00  0.00    -0.378 OA
HETATM   15  C   UNL     1       2.668  -1.662  -1.726  1.00  0.00     0.146 C 
HETATM   16  C   UNL     1       3.215  -0.593  -2.696  1.00  0.00     0.303 C 
HETATM   17  C   UNL     1       3.313  -3.015  -1.994  1.00  0.00     0.041 C 
ENDBRANCH   9  10
ENDBRANCH   8   9
ENDBRANCH   7   8
ENDBRANCH   1   7
BRANCH   4  18
HETATM   18  C   UNL     1       3.412   5.076  -8.891  1.00  0.00     0.051 A 
HETATM   19  C   UNL     1       4.509   5.936  -8.946  1.00  0.00     0.032 A 
HETATM   20  C   UNL     1       4.808   6.609 -10.128  1.00  0.00     0.019 A 
HETATM   21  C   UNL     1       4.012   6.376 -11.235  1.00  0.00     0.088 A 
HETATM   22  N   UNL     1       2.969   5.517 -11.241  1.00  0.00    -0.373 N 
HETATM   23  C   UNL     1       2.700   4.886 -10.072  1.00  0.00     0.117 A 
ATOM     24  HN  UNL     1       2.414   5.352 -12.081  1.00  0.00     0.164 HD
ENDBRANCH   4  18
TORSDOF 5
