REMARK  6 active torsions:
REMARK  status: ('A' for Active; 'I' for Inactive)
REMARK    1  A    between atoms: O_2  and  C_3 
REMARK    2  A    between atoms: N_6  and  C_7 
REMARK    3  A    between atoms: C_7  and  C_8 
REMARK    4  A    between atoms: C_8  and  O_9 
REMARK    5  A    between atoms: C_8  and  C_10 
REMARK    6  A    between atoms: C_10  and  N_11 
ROOT
HETATM    1  C   UNL     1       6.563  -5.252  -0.623  1.00  0.00     0.163 C 
ENDROOT
BRANCH   1   2
HETATM    2  C   UNL     1       5.822  -4.102  -1.321  1.00  0.00     0.164 C 
BRANCH   2   3
HETATM    3  C   UNL     1       4.367  -4.011  -0.779  1.00  0.00     0.305 C 
BRANCH   3   4
HETATM    4  N   UNL     1       3.497  -2.985  -1.388  1.00  0.00     0.091 N 
HETATM    5  C   UNL     1       3.987  -1.601  -1.274  1.00  0.00     0.275 C 
HETATM    6  C   UNL     1       3.998  -1.099   0.175  1.00  0.00     0.062 C 
HETATM    7  C   UNL     1       2.574  -1.116   0.734  1.00  0.00     0.124 C 
HETATM    8  C   UNL     1       1.969  -2.517   0.567  1.00  0.00     0.062 C 
HETATM    9  C   UNL     1       2.117  -3.042  -0.867  1.00  0.00     0.275 C 
BRANCH   7  10
HETATM   10  O   UNL     1       1.865  -0.103   0.013  1.00  0.00    -0.391 OA
HETATM   11  C   UNL     1       0.549   0.151   0.467  1.00  0.00     0.202 C 
ENDBRANCH   7  10
ENDBRANCH   3   4
ENDBRANCH   2   3
BRANCH   2  12
HETATM   12  O   UNL     1       6.563  -2.901  -1.071  1.00  0.00    -0.392 OA
HETATM   13  H   UNL     1       6.415  -2.625  -0.151  1.00  0.00     0.210 HD
ENDBRANCH   2  12
ENDBRANCH   1   2
BRANCH   1  14
HETATM   14  N   UNL     1       7.918  -5.406  -1.120  1.00  0.00    -0.339 N 
HETATM   15  C   UNL     1       9.008  -4.714  -0.663  1.00  0.00     0.184 A 
HETATM   16  N   UNL     1      10.096  -5.031  -1.325  1.00  0.00    -0.350 N 
HETATM   17  C   UNL     1       9.689  -5.957  -2.253  1.00  0.00     0.060 A 
ATOM     18  HN  UNL     1      11.038  -4.668  -1.181  1.00  0.00     0.166 HD
HETATM   19  C   UNL     1      10.434  -6.617  -3.238  1.00  0.00     0.039 A 
HETATM   20  C   UNL     1       8.331  -6.228  -2.134  1.00  0.00     0.062 A 
HETATM   21  C   UNL     1       9.805  -7.561  -4.076  1.00  0.00    -0.054 A 
HETATM   22  C   UNL     1      10.645  -8.259  -5.110  1.00  0.00     0.049 C 
HETATM   23  C   UNL     1       8.429  -7.832  -3.923  1.00  0.00    -0.054 A 
HETATM   24  C   UNL     1       7.696  -8.847  -4.762  1.00  0.00     0.049 C 
HETATM   25  C   UNL     1       7.670  -7.150  -2.950  1.00  0.00     0.039 A 
ENDBRANCH   1  14
TORSDOF 6
