REMARK  5 active torsions:
REMARK  status: ('A' for Active; 'I' for Inactive)
REMARK    1  A    between atoms: C_7  and  C_9 
REMARK    2  A    between atoms: C_9  and  O_10 
REMARK    3  A    between atoms: C_9  and  C_11 
REMARK    4  A    between atoms: C_11  and  N_12 
REMARK    5  A    between atoms: C_16  and  C_20 
ROOT
HETATM    1  N   UNL     1       5.090  -5.082  -0.398  1.00  0.00    -0.308 N 
HETATM    2  C   UNL     1       4.810  -5.882  -1.472  1.00  0.00     0.186 A 
HETATM    3  N   UNL     1       5.248  -7.085  -1.637  1.00  0.00    -0.355 N 
ATOM      4  HN  UNL     1       5.003  -7.633  -2.462  1.00  0.00     0.166 HD
HETATM    5  C   UNL     1       6.057  -7.594  -0.655  1.00  0.00     0.019 A 
HETATM    6  C   UNL     1       6.424  -6.911   0.435  1.00  0.00     0.100 A 
HETATM    7  C   UNL     1       5.914  -5.537   0.606  1.00  0.00     0.250 A 
HETATM    8  O   UNL     1       6.210  -4.906   1.616  1.00  0.00    -0.268 OA
ENDROOT
BRANCH   1   9
HETATM    9  C   UNL     1       4.411  -3.805  -0.236  1.00  0.00     0.169 C 
BRANCH   9  10
HETATM   10  C   UNL     1       5.310  -2.550  -0.269  1.00  0.00     0.170 C 
BRANCH  10  11
HETATM   11  C   UNL     1       6.077  -2.375  -1.575  1.00  0.00    -0.022 A 
HETATM   12  C   UNL     1       7.490  -2.337  -1.608  1.00  0.00    -0.053 A 
HETATM   13  C   UNL     1       8.148  -2.176  -2.839  1.00  0.00     0.008 A 
HETATM   14  C   UNL     1       8.332  -2.486  -0.369  1.00  0.00     0.049 C 
HETATM   15  C   UNL     1       7.433  -2.075  -4.031  1.00  0.00     0.007 A 
HETATM   16  C   UNL     1       6.040  -2.131  -4.020  1.00  0.00    -0.061 A 
HETATM   17  C   UNL     1       5.261  -2.066  -5.300  1.00  0.00     0.048 C 
HETATM   18  C   UNL     1       5.373  -2.261  -2.794  1.00  0.00     0.017 A 
ENDBRANCH  10  11
BRANCH  10  19
HETATM   19  O   UNL     1       4.463  -1.414  -0.029  1.00  0.00    -0.389 OA
HETATM   20  H   UNL     1       4.298  -0.963  -0.873  1.00  0.00     0.210 HD
ENDBRANCH  10  19
ENDBRANCH   9  10
ENDBRANCH   1   9
BRANCH   5  21
HETATM   21  C   UNL     1       6.460  -9.022  -0.810  1.00  0.00     0.036 C 
HETATM   22  C   UNL     1       7.854  -9.472  -0.295  1.00  0.00     0.011 C 
HETATM   23  C   UNL     1       7.940 -10.389  -1.532  1.00  0.00     0.001 C 
HETATM   24  C   UNL     1       6.964  -9.421  -2.226  1.00  0.00     0.011 C 
ENDBRANCH   5  21
TORSDOF 5
