REMARK  8 active torsions:
REMARK  status: ('A' for Active; 'I' for Inactive)
REMARK    1  A    between atoms: O_2  and  C_3 
REMARK    2  A    between atoms: C_6  and  C_7 
REMARK    3  A    between atoms: C_7  and  O_8 
REMARK    4  A    between atoms: O_8  and  C_9 
REMARK    5  A    between atoms: C_9  and  C_10 
REMARK    6  A    between atoms: C_10  and  O_11 
REMARK    7  A    between atoms: C_10  and  C_12 
REMARK    8  A    between atoms: C_12  and  N_13 
ROOT
HETATM    1  C   UNL     1       5.654   1.343  -7.655  1.00  0.00     0.160 C 
ENDROOT
BRANCH   1   2
HETATM    2  C   UNL     1       5.358   2.462  -6.644  1.00  0.00     0.201 C 
BRANCH   2   3
HETATM    3  O   UNL     1       5.100   1.886  -5.359  1.00  0.00    -0.384 OA
BRANCH   3   4
HETATM    4  C   UNL     1       4.858   2.886  -4.368  1.00  0.00     0.206 C 
BRANCH   4   5
HETATM    5  C   UNL     1       4.795   2.225  -3.014  1.00  0.00    -0.034 A 
HETATM    6  C   UNL     1       5.890   1.478  -2.557  1.00  0.00     0.012 A 
HETATM    7  C   UNL     1       5.885   0.913  -1.281  1.00  0.00     0.037 A 
HETATM    8  C   UNL     1       4.789   1.096  -0.438  1.00  0.00     0.068 A 
HETATM    9  C   UNL     1       3.677   1.798  -0.904  1.00  0.00     0.037 A 
HETATM   10  C   UNL     1       3.682   2.368  -2.182  1.00  0.00     0.012 A 
BRANCH   8  11
HETATM   11  O   UNL     1       4.700   0.602   0.836  1.00  0.00    -0.356 OA
HETATM   12  C   UNL     1       5.941   0.543   1.536  1.00  0.00     0.210 C 
ENDBRANCH   8  11
ENDBRANCH   4   5
ENDBRANCH   3   4
ENDBRANCH   2   3
ENDBRANCH   1   2
BRANCH   1  13
HETATM   13  O   UNL     1       6.905   0.730  -7.322  1.00  0.00    -0.392 OA
HETATM   14  H   UNL     1       6.746   0.089  -6.606  1.00  0.00     0.210 HD
ENDBRANCH   1  13
BRANCH   1  15
HETATM   15  C   UNL     1       4.509   0.320  -7.672  1.00  0.00     0.164 C 
BRANCH  15  16
HETATM   16  N   UNL     1       4.691  -0.746  -8.639  1.00  0.00    -0.339 N 
HETATM   17  C   UNL     1       4.336  -0.677  -9.958  1.00  0.00     0.184 A 
HETATM   18  N   UNL     1       4.455  -1.841 -10.555  1.00  0.00    -0.350 N 
HETATM   19  C   UNL     1       4.911  -2.700  -9.583  1.00  0.00     0.060 A 
ATOM     20  HN  UNL     1       4.253  -2.061 -11.530  1.00  0.00     0.166 HD
HETATM   21  C   UNL     1       5.182  -4.073  -9.662  1.00  0.00     0.032 A 
HETATM   22  C   UNL     1       5.094  -2.033  -8.372  1.00  0.00     0.062 A 
HETATM   23  C   UNL     1       5.646  -4.735  -8.520  1.00  0.00     0.002 A 
HETATM   24  C   UNL     1       5.844  -4.044  -7.325  1.00  0.00     0.002 A 
HETATM   25  C   UNL     1       5.568  -2.675  -7.221  1.00  0.00     0.032 A 
ENDBRANCH  15  16
ENDBRANCH   1  15
TORSDOF 8
