REMARK  5 active torsions:
REMARK  status: ('A' for Active; 'I' for Inactive)
REMARK    1  A    between atoms: C_2  and  N_3 
REMARK    2  A    between atoms: C_2  and  C_17 
REMARK       I    between atoms: N_3  and  C_4 
REMARK    3  A    between atoms: C_4  and  C_6 
REMARK    4  A    between atoms: C_6  and  N_7 
REMARK    5  A    between atoms: C_9  and  N_14 
ROOT
HETATM    1  N   UNL     1       2.810   0.156  -1.586  1.00  0.00    -0.355 N 
HETATM    2  C   UNL     1       3.762  -0.703  -2.101  1.00  0.00     0.236 C 
HETATM    3  O   UNL     1       4.385  -1.521  -1.426  1.00  0.00    -0.272 OA
HETATM    4  H   UNL     1       2.466   0.907  -2.184  1.00  0.00     0.162 HD
ENDROOT
BRANCH   2   5
HETATM    5  C   UNL     1       4.015  -0.557  -3.598  1.00  0.00     0.234 C 
BRANCH   5   6
HETATM    6  N   UNL     1       4.904   0.561  -3.897  1.00  0.00    -0.314 N 
HETATM    7  C   UNL     1       6.277   0.347  -3.993  1.00  0.00     0.130 A 
HETATM    8  C   UNL     1       7.105   1.353  -4.323  1.00  0.00     0.118 A 
HETATM    9  C   UNL     1       6.575   2.675  -4.589  1.00  0.00     0.043 A 
HETATM   10  C   UNL     1       5.260   2.910  -4.475  1.00  0.00     0.077 A 
HETATM   11  C   UNL     1       4.328   1.817  -4.075  1.00  0.00     0.247 A 
HETATM   12  O   UNL     1       3.135   2.056  -3.920  1.00  0.00    -0.268 OA
BRANCH   8  13
HETATM   13  N   UNL     1       8.535   1.068  -4.439  1.00  0.00    -0.114 N 
HETATM   14  O   UNL     1       9.275   2.011  -4.749  1.00  0.00    -0.532 OA
HETATM   15  O   UNL     1       8.925  -0.090  -4.232  1.00  0.00    -0.532 OA
ENDBRANCH   8  13
ENDBRANCH   5   6
ENDBRANCH   2   5
BRANCH   1  16
HETATM   16  C   UNL     1       2.410   0.124  -0.182  1.00  0.00     0.084 C 
HETATM   17  C   UNL     1       0.891   0.281  -0.082  1.00  0.00     0.032 C 
BRANCH  16  18
HETATM   18  C   UNL     1       3.133   1.198   0.664  1.00  0.00     0.012 C 
HETATM   19  C   UNL     1       4.680   1.138   0.622  1.00  0.00     0.011 C 
HETATM   20  C   UNL     1       5.065   0.929   2.093  1.00  0.00    -0.014 C 
HETATM   21  C   UNL     1       4.600  -0.472   2.538  1.00  0.00     0.005 C 
HETATM   22  C   UNL     1       4.069   1.853   2.787  1.00  0.00     0.010 C 
HETATM   23  C   UNL     1       3.092  -0.284   2.754  1.00  0.00     0.005 C 
HETATM   24  C   UNL     1       2.852   1.130   2.200  1.00  0.00    -0.008 C 
ENDBRANCH  16  18
ENDBRANCH   1  16
TORSDOF 5
