REMARK  4 active torsions:
REMARK  status: ('A' for Active; 'I' for Inactive)
REMARK    1  A    between atoms: N_5  and  C_6 
REMARK    2  A    between atoms: C_6  and  C_7 
REMARK    3  A    between atoms: C_7  and  C_8 
REMARK    4  A    between atoms: N_14  and  C_15 
ROOT
HETATM    1  C   UNL     3       4.573   1.779  -0.178  1.00  0.00     0.101 A 
HETATM    2  N   UNL     3       5.381   1.732   0.900  1.00  0.00    -0.288 N 
ATOM      3  HN  UNL     3       5.090   1.760   1.877  1.00  0.00     0.188 HD
HETATM    4  N   UNL     3       6.626   1.643   0.451  1.00  0.00    -0.295 N 
ATOM      5  HN  UNL     3       7.471   1.587   1.019  1.00  0.00     0.187 HD
HETATM    6  C   UNL     3       6.567   1.640  -0.896  1.00  0.00     0.201 A 
HETATM    7  N   UNL     3       5.293   1.715  -1.317  1.00  0.00    -0.326 N 
ENDROOT
BRANCH   1   8
HETATM    8  C   UNL     3       3.077   1.910  -0.090  1.00  0.00     0.107 C 
BRANCH   8   9
HETATM    9  C   UNL     3       2.689   3.232   0.573  1.00  0.00     0.274 C 
BRANCH   9  10
HETATM   10  N   UNL     3       1.237   3.361   0.626  1.00  0.00     0.078 N 
HETATM   11  H   UNL     3       0.998   4.311   0.991  1.00  0.00     0.312 HD
HETATM   12  H   UNL     3       0.855   2.653   1.294  1.00  0.00     0.312 HD
ENDBRANCH   9  10
ENDBRANCH   8   9
ENDBRANCH   1   8
BRANCH   7  13
HETATM   13  C   UNL     3       4.822   1.759  -2.704  1.00  0.00     0.092 A 
HETATM   14  C   UNL     3       3.918   0.555  -2.956  1.00  0.00     0.028 A 
HETATM   15  C   UNL     3       5.265   0.639  -3.638  1.00  0.00     0.028 A 
ENDBRANCH   7  13
TORSDOF 4
