REMARK  4 active torsions:
REMARK  status: ('A' for Active; 'I' for Inactive)
REMARK    1  A    between atoms: C_2  and  C_3 
REMARK    2  A    between atoms: C_2  and  N_10 
REMARK    3  A    between atoms: C_3  and  N_4 
REMARK       I    between atoms: N_10  and  C_11 
REMARK       I    between atoms: C_11  and  N_13 
REMARK    4  A    between atoms: C_16  and  C_19 
REMARK       I    between atoms: C_19  and  N_21 
ROOT
HETATM    1  N   UNL     1       3.141   0.408   1.302  1.00  0.00    -0.337 N 
HETATM    2  C   UNL     1       4.479   0.287   1.578  1.00  0.00     0.318 C 
HETATM    3  O   UNL     1       5.282  -0.069   0.720  1.00  0.00    -0.247 OA
HETATM    4  N   UNL     1       4.838   0.606   2.875  1.00  0.00    -0.334 N 
HETATM    5  C   UNL     1       3.965   1.216   3.881  1.00  0.00     0.128 C 
HETATM    6  C   UNL     1       4.600   2.482   4.459  1.00  0.00     0.034 C 
HETATM    7  C   UNL     1       6.023   2.228   4.977  1.00  0.00     0.081 C 
HETATM    8  C   UNL     1       6.867   1.588   3.864  1.00  0.00     0.034 C 
HETATM    9  C   UNL     1       6.202   0.330   3.315  1.00  0.00     0.128 C 
HETATM   10  H   UNL     1       2.550   0.139   2.074  1.00  0.00     0.164 HD
ENDROOT
BRANCH   1  11
HETATM   11  C   UNL     1       2.624   0.110  -0.036  1.00  0.00     0.100 C 
HETATM   12  C   UNL     1       1.117  -0.132   0.056  1.00  0.00     0.034 C 
BRANCH  11  13
HETATM   13  C   UNL     1       2.965   1.249  -1.020  1.00  0.00     0.153 C 
BRANCH  13  14
HETATM   14  N   UNL     1       2.564   0.986  -2.386  1.00  0.00    -0.350 N 
HETATM   15  C   UNL     1       1.681   1.719  -3.130  1.00  0.00     0.108 A 
HETATM   16  C   UNL     1       1.630   1.081  -4.347  1.00  0.00     0.106 A 
HETATM   17  N   UNL     1       2.461  -0.008  -4.362  1.00  0.00    -0.361 N 
HETATM   18  C   UNL     1       3.025  -0.030  -3.174  1.00  0.00     0.182 A 
ATOM     19  HN  UNL     1       2.610  -0.662  -5.130  1.00  0.00     0.166 HD
ENDBRANCH  13  14
ENDBRANCH  11  13
ENDBRANCH   1  11
BRANCH   7  20
HETATM   20  C   UNL     1       5.999   1.394   6.257  1.00  0.00     0.219 C 
HETATM   21  O   UNL     1       4.975   1.065   6.843  1.00  0.00    -0.273 OA
HETATM   22  N   UNL     1       7.214   1.050   6.768  1.00  0.00    -0.370 N 
HETATM   23  H   UNL     1       8.095   1.357   6.384  1.00  0.00     0.159 HD
HETATM   24  H   UNL     1       7.219   0.531   7.637  1.00  0.00     0.159 HD
ENDBRANCH   7  20
TORSDOF 4
