REMARK  6 active torsions:
REMARK  status: ('A' for Active; 'I' for Inactive)
REMARK    1  A    between atoms: C_7  and  O_8 
REMARK    2  A    between atoms: O_8  and  C_9 
REMARK    3  A    between atoms: C_9  and  C_10 
REMARK    4  A    between atoms: C_10  and  N_11 
REMARK    5  A    between atoms: C_12  and  C_13 
REMARK    6  A    between atoms: C_13  and  O_14 
ROOT
HETATM    1  N   UNL     1      -0.887  -3.951  -0.293  1.00  0.00    -0.331 N 
HETATM    2  C   UNL     1      -1.620  -5.128  -0.387  1.00  0.00     0.108 A 
HETATM    3  N   UNL     1      -2.914  -4.876  -0.408  1.00  0.00    -0.342 N 
ATOM      4  HN  UNL     1      -3.670  -5.555  -0.496  1.00  0.00     0.167 HD
HETATM    5  C   UNL     1      -3.036  -3.522  -0.288  1.00  0.00     0.060 A 
HETATM    6  C   UNL     1      -4.212  -2.754  -0.229  1.00  0.00     0.032 A 
HETATM    7  C   UNL     1      -4.119  -1.365  -0.108  1.00  0.00     0.002 A 
HETATM    8  C   UNL     1      -2.877  -0.752  -0.043  1.00  0.00     0.002 A 
HETATM    9  C   UNL     1      -1.697  -1.503  -0.084  1.00  0.00     0.032 A 
HETATM   10  C   UNL     1      -1.788  -2.903  -0.213  1.00  0.00     0.062 A 
ENDROOT
BRANCH   1  11
HETATM   11  C   UNL     1       0.575  -3.923  -0.290  1.00  0.00     0.157 C 
BRANCH  11  12
HETATM   12  C   UNL     1       1.232  -2.558  -0.124  1.00  0.00     0.196 C 
BRANCH  12  13
HETATM   13  O   UNL     1       2.644  -2.607  -0.239  1.00  0.00    -0.349 OA
BRANCH  13  14
HETATM   14  C   UNL     1       3.276  -2.468  -1.442  1.00  0.00     0.074 A 
HETATM   15  C   UNL     1       2.865  -1.841  -2.633  1.00  0.00    -0.029 A 
HETATM   16  C   UNL     1       1.569  -1.113  -2.861  1.00  0.00     0.051 C 
HETATM   17  C   UNL     1       3.750  -1.853  -3.735  1.00  0.00     0.009 A 
HETATM   18  C   UNL     1       5.015  -2.436  -3.659  1.00  0.00     0.001 A 
HETATM   19  C   UNL     1       5.427  -3.015  -2.472  1.00  0.00     0.003 A 
HETATM   20  C   UNL     1       4.567  -3.026  -1.378  1.00  0.00     0.037 A 
ENDBRANCH  13  14
ENDBRANCH  12  13
ENDBRANCH  11  12
ENDBRANCH   1  11
BRANCH   2  21
HETATM   21  C   UNL     1      -1.041  -6.502  -0.425  1.00  0.00     0.240 C 
BRANCH  21  22
HETATM   22  O   UNL     1      -0.301  -6.646  -1.629  1.00  0.00    -0.393 OA
HETATM   23  H   UNL     1      -0.963  -6.699  -2.342  1.00  0.00     0.209 HD
ENDBRANCH  21  22
ENDBRANCH   2  21
TORSDOF 6
