REMARK  5 active torsions:
REMARK  status: ('A' for Active; 'I' for Inactive)
REMARK    1  A    between atoms: C_2  and  C_4 
REMARK    2  A    between atoms: C_4  and  N_5 
REMARK    3  A    between atoms: C_9  and  C_10 
REMARK    4  A    between atoms: C_10  and  N_11 
REMARK       I    between atoms: N_11  and  C_12 
REMARK       I    between atoms: C_12  and  N_14 
REMARK    5  A    between atoms: N_14  and  C_15 
ROOT
HETATM    1  N   UNL     1       6.506  -2.787  -3.544  1.00  0.00    -0.340 N 
HETATM    2  C   UNL     1       7.149  -3.769  -2.830  1.00  0.00     0.321 C 
HETATM    3  O   UNL     1       6.555  -4.734  -2.361  1.00  0.00    -0.247 OA
HETATM    4  N   UNL     1       8.474  -3.483  -2.657  1.00  0.00    -0.293 N 
HETATM    5  H   UNL     1       7.047  -2.149  -4.112  1.00  0.00     0.164 HD
HETATM    6  H   UNL     1       8.749  -2.512  -2.644  1.00  0.00     0.172 HD
ENDROOT
BRANCH   1   7
HETATM    7  C   UNL     1       5.064  -2.733  -3.668  1.00  0.00     0.158 C 
BRANCH   7   8
HETATM    8  C   UNL     1       4.520  -1.359  -3.257  1.00  0.00     0.167 C 
HETATM    9  O   UNL     1       5.043  -0.366  -4.167  1.00  0.00    -0.381 OA
HETATM   10  C   UNL     1       4.543   0.937  -3.832  1.00  0.00     0.198 C 
HETATM   11  C   UNL     1       4.861   1.319  -2.374  1.00  0.00     0.298 C 
HETATM   12  N   UNL     1       4.406   0.324  -1.375  1.00  0.00     0.093 N 
HETATM   13  C   UNL     1       4.909  -1.001  -1.804  1.00  0.00     0.305 C 
BRANCH  12  14
HETATM   14  C   UNL     1       2.945   0.370  -1.190  1.00  0.00     0.276 C 
BRANCH  14  15
HETATM   15  C   UNL     1       2.403  -0.593  -0.108  1.00  0.00     0.006 C 
HETATM   16  C   UNL     1       2.993  -0.291   1.270  1.00  0.00     0.011 C 
HETATM   17  C   UNL     1       0.875  -0.520  -0.058  1.00  0.00     0.011 C 
ENDBRANCH  14  15
ENDBRANCH  12  14
ENDBRANCH   7   8
ENDBRANCH   1   7
BRANCH   4  18
HETATM   18  C   UNL     1       9.319  -4.313  -1.954  1.00  0.00     0.132 A 
HETATM   19  C   UNL     1       9.262  -5.719  -1.831  1.00  0.00     0.084 A 
HETATM   20  C   UNL     1      10.318  -6.034  -1.014  1.00  0.00     0.076 A 
HETATM   21  C   UNL     1      10.858  -7.293  -0.477  1.00  0.00     0.079 C 
HETATM   22  O   UNL     1      10.969  -4.893  -0.668  1.00  0.00    -0.241 OA
HETATM   23  N   UNL     1      10.369  -3.814  -1.294  1.00  0.00    -0.245 N 
ATOM     24  HN  UNL     1      10.667  -2.839  -1.259  1.00  0.00     0.196 HD
ENDBRANCH   4  18
TORSDOF 5
