REMARK  6 active torsions:
REMARK  status: ('A' for Active; 'I' for Inactive)
REMARK    1  A    between atoms: C_2  and  C_4 
REMARK    2  A    between atoms: C_4  and  N_5 
REMARK    3  A    between atoms: C_4  and  C_9 
REMARK       I    between atoms: N_5  and  C_6 
REMARK       I    between atoms: C_9  and  N_11 
REMARK    4  A    between atoms: N_11  and  C_12 
REMARK    5  A    between atoms: C_12  and  C_13 
REMARK    6  A    between atoms: C_18  and  N_20 
ROOT
HETATM    1  C   UNL     1       6.622  -2.302   1.301  1.00  0.00     0.161 C 
ENDROOT
BRANCH   1   2
HETATM    2  N   UNL     1       5.181  -2.216   1.225  1.00  0.00    -0.355 N 
HETATM    3  C   UNL     1       4.557  -1.506   0.217  1.00  0.00     0.241 C 
HETATM    4  O   UNL     1       5.183  -0.892  -0.644  1.00  0.00    -0.271 OA
HETATM    5  H   UNL     1       4.630  -2.723   1.904  1.00  0.00     0.162 HD
BRANCH   3   6
HETATM    6  C   UNL     1       3.011  -1.579   0.218  1.00  0.00     0.179 C 
BRANCH   6   7
HETATM    7  C   UNL     1       2.511  -3.036   0.040  1.00  0.00     0.009 C 
HETATM    8  C   UNL     1       0.981  -3.136   0.038  1.00  0.00     0.012 C 
HETATM    9  C   UNL     1       3.045  -3.651  -1.259  1.00  0.00     0.012 C 
ENDBRANCH   6   7
BRANCH   6  10
HETATM   10  N   UNL     1       2.539  -0.987   1.474  1.00  0.00    -0.348 N 
HETATM   11  C   UNL     1       1.411  -0.197   1.522  1.00  0.00     0.214 C 
HETATM   12  O   UNL     1       0.687   0.021   0.556  1.00  0.00    -0.274 OA
HETATM   13  C   UNL     1       1.093   0.328   2.895  1.00  0.00     0.117 C 
HETATM   14  H   UNL     1       3.144  -1.017   2.283  1.00  0.00     0.163 HD
ENDBRANCH   6  10
ENDBRANCH   3   6
ENDBRANCH   1   2
BRANCH   1  15
HETATM   15  C   UNL     1       7.065  -3.635   1.838  1.00  0.00    -0.036 A 
HETATM   16  C   UNL     1       7.228  -3.859   3.200  1.00  0.00     0.026 A 
HETATM   17  C   UNL     1       7.625  -5.120   3.606  1.00  0.00     0.090 A 
HETATM   18  N   UNL     1       7.867  -6.149   2.761  1.00  0.00    -0.352 N 
HETATM   19  C   UNL     1       7.744  -5.941   1.433  1.00  0.00     0.103 A 
ATOM     20  HN  UNL     1       8.137  -7.064   3.121  1.00  0.00     0.166 HD
HETATM   21  C   UNL     1       7.317  -4.698   0.959  1.00  0.00     0.057 A 
BRANCH  19  22
HETATM   22  N   UNL     1       8.074  -6.962   0.577  1.00  0.00    -0.363 N 
HETATM   23  C   UNL     1       7.933  -8.363   0.987  1.00  0.00     0.150 C 
HETATM   24  C   UNL     1       9.193  -9.167   0.625  1.00  0.00     0.187 C 
HETATM   25  O   UNL     1       9.567  -8.991  -0.753  1.00  0.00    -0.388 OA
HETATM   26  C   UNL     1       9.830  -7.604  -1.014  1.00  0.00     0.187 C 
HETATM   27  C   UNL     1       8.579  -6.743  -0.779  1.00  0.00     0.150 C 
ENDBRANCH  19  22
ENDBRANCH   1  15
TORSDOF 6
