REMARK  6 active torsions:
REMARK  status: ('A' for Active; 'I' for Inactive)
REMARK    1  A    between atoms: O_1  and  C_2 
REMARK    2  A    between atoms: C_2  and  C_3 
REMARK    3  A    between atoms: N_12  and  C_13 
REMARK    4  A    between atoms: C_13  and  C_14 
REMARK    5  A    between atoms: C_14  and  O_15 
REMARK    6  A    between atoms: C_14  and  C_16 
ROOT
HETATM    1  C   UNL     1       2.860  -1.011   1.173  1.00  0.00     0.108 A 
HETATM    2  N   UNL     1       3.474  -0.693   2.297  1.00  0.00    -0.342 N 
ATOM      3  HN  UNL     1       3.774   0.237   2.590  1.00  0.00     0.167 HD
HETATM    4  C   UNL     1       3.627  -1.864   2.991  1.00  0.00     0.060 A 
HETATM    5  C   UNL     1       4.193  -2.077   4.257  1.00  0.00     0.032 A 
HETATM    6  C   UNL     1       4.232  -3.378   4.770  1.00  0.00     0.002 A 
HETATM    7  C   UNL     1       3.720  -4.446   4.034  1.00  0.00     0.002 A 
HETATM    8  C   UNL     1       3.151  -4.252   2.769  1.00  0.00     0.032 A 
HETATM    9  C   UNL     1       3.119  -2.941   2.272  1.00  0.00     0.062 A 
HETATM   10  N   UNL     1       2.644  -2.374   1.105  1.00  0.00    -0.330 N 
ENDROOT
BRANCH  10  11
HETATM   11  C   UNL     1       1.960  -3.093   0.041  1.00  0.00     0.167 C 
BRANCH  11  12
HETATM   12  C   UNL     1       2.884  -3.503  -1.120  1.00  0.00     0.169 C 
BRANCH  12  13
HETATM   13  O   UNL     1       3.844  -4.489  -0.737  1.00  0.00    -0.389 OA
HETATM   14  H   UNL     1       3.447  -5.072  -0.072  1.00  0.00     0.210 HD
ENDBRANCH  12  13
BRANCH  12  15
HETATM   15  C   UNL     1       2.170  -4.051  -2.347  1.00  0.00    -0.028 A 
HETATM   16  C   UNL     1       2.781  -3.912  -3.606  1.00  0.00     0.011 A 
HETATM   17  C   UNL     1       2.167  -4.398  -4.764  1.00  0.00     0.024 A 
HETATM   18  C   UNL     1       0.938  -5.043  -4.674  1.00  0.00     0.034 A 
HETATM   19 CL   UNL     1       0.170  -5.630  -6.098  1.00  0.00    -0.084 Cl
HETATM   20  C   UNL     1       0.328  -5.218  -3.436  1.00  0.00     0.024 A 
HETATM   21  C   UNL     1       0.944  -4.733  -2.276  1.00  0.00     0.011 A 
ENDBRANCH  12  15
ENDBRANCH  11  12
ENDBRANCH  10  11
BRANCH   1  22
HETATM   22  C   UNL     1       2.480  -0.032   0.117  1.00  0.00     0.240 C 
BRANCH  22  23
HETATM   23  O   UNL     1       1.070  -0.086  -0.054  1.00  0.00    -0.393 OA
HETATM   24  H   UNL     1       0.810   0.762  -0.452  1.00  0.00     0.209 HD
ENDBRANCH  22  23
ENDBRANCH   1  22
TORSDOF 6
