REMARK  5 active torsions:
REMARK  status: ('A' for Active; 'I' for Inactive)
REMARK    1  A    between atoms: N_2  and  C_4 
REMARK    2  A    between atoms: C_11  and  N_12 
REMARK       I    between atoms: N_12  and  C_13 
REMARK       I    between atoms: C_13  and  N_15 
REMARK    3  A    between atoms: N_15  and  C_16 
REMARK    4  A    between atoms: C_16  and  C_17 
REMARK    5  A    between atoms: C_17  and  C_20 
ROOT
HETATM    1  N   UNL     1       2.525   2.754   0.269  1.00  0.00    -0.305 N 
HETATM    2  C   UNL     1       2.368   2.454  -1.064  1.00  0.00     0.320 C 
HETATM    3  O   UNL     1       2.930   1.525  -1.636  1.00  0.00    -0.247 OA
HETATM    4  N   UNL     1       1.540   3.342  -1.718  1.00  0.00    -0.342 N 
HETATM    5  H   UNL     1       2.516   3.740   0.499  1.00  0.00     0.171 HD
HETATM    6  H   UNL     1       0.745   3.649  -1.178  1.00  0.00     0.164 HD
ENDROOT
BRANCH   1   7
HETATM    7  C   UNL     1       3.356   1.954   1.097  1.00  0.00     0.090 A 
HETATM    8  C   UNL     1       4.310   2.507   1.961  1.00  0.00     0.111 A 
HETATM    9  N   UNL     1       4.994   1.710   2.818  1.00  0.00    -0.341 N 
HETATM   10  C   UNL     1       4.774   0.388   2.756  1.00  0.00     0.181 A 
ATOM     11  HN  UNL     1       5.655   2.103   3.488  1.00  0.00     0.167 HD
HETATM   12  N   UNL     1       3.919  -0.240   1.939  1.00  0.00    -0.360 N 
HETATM   13  C   UNL     1       3.226   0.571   1.123  1.00  0.00     0.121 A 
ATOM     14  HN  UNL     1       3.803  -1.253   1.937  1.00  0.00     0.166 HD
BRANCH   8  15
HETATM   15  N   UNL     1       4.627   3.893   1.932  1.00  0.00    -0.276 NA
HETATM   16  C   UNL     1       5.492   4.325   3.036  1.00  0.00     0.118 C 
HETATM   17  C   UNL     1       5.013   4.400   0.608  1.00  0.00     0.118 C 
ENDBRANCH   8  15
ENDBRANCH   1   7
BRANCH   4  18
HETATM   18  C   UNL     1       1.315   3.096  -3.132  1.00  0.00     0.134 C 
BRANCH  18  19
HETATM   19  C   UNL     1       0.290   4.042  -3.743  1.00  0.00    -0.021 A 
HETATM   20  C   UNL     1      -1.154   3.905  -3.276  1.00  0.00     0.012 A 
HETATM   21  C   UNL     1      -0.764   3.362  -4.615  1.00  0.00     0.012 A 
BRANCH  19  22
HETATM   22  C   UNL     1       0.843   5.438  -4.129  1.00  0.00    -0.004 A 
HETATM   23  C   UNL     1       0.059   6.465  -4.919  1.00  0.00     0.006 A 
HETATM   24  C   UNL     1       1.236   5.787  -5.550  1.00  0.00     0.006 A 
ENDBRANCH  19  22
ENDBRANCH  18  19
ENDBRANCH   4  18
TORSDOF 5
