REMARK  5 active torsions:
REMARK  status: ('A' for Active; 'I' for Inactive)
REMARK    1  A    between atoms: O_1  and  C_2 
REMARK    2  A    between atoms: C_2  and  C_4 
REMARK    3  A    between atoms: N_8  and  C_9 
REMARK    4  A    between atoms: C_9  and  C_10 
REMARK       I    between atoms: C_10  and  N_12 
REMARK    5  A    between atoms: N_12  and  C_13 
ROOT
HETATM    1  C   UNL     1       4.633  -2.011   3.778  1.00  0.00     0.250 C 
ENDROOT
BRANCH   1   2
HETATM    2  N   UNL     1       4.713  -1.650   5.179  1.00  0.00    -0.294 N 
HETATM    3  N   UNL     1       5.594  -2.280   5.982  1.00  0.00    -0.309 N 
HETATM    4  C   UNL     1       5.469  -1.638   7.147  1.00  0.00     0.127 A 
ATOM      5  HN  UNL     1       6.209  -3.061   5.754  1.00  0.00     0.186 HD
HETATM    6  C   UNL     1       4.495  -0.615   7.112  1.00  0.00     0.071 A 
HETATM    7  C   UNL     1       4.035  -0.640   5.808  1.00  0.00     0.130 A 
BRANCH   6   8
HETATM    8  C   UNL     1       4.127   0.273   8.197  1.00  0.00     0.179 C 
HETATM    9  O   UNL     1       4.833   0.456   9.178  1.00  0.00    -0.646 OA
BRANCH   8  10
HETATM   10  O   UNL     1       2.920   0.874   8.058  1.00  0.00    -0.773 OA
HETATM   11  H   UNL     1       2.421   0.538   7.292  1.00  0.00     0.167 HD
ENDBRANCH   8  10
ENDBRANCH   6   8
ENDBRANCH   1   2
BRANCH   1  12
HETATM   12  C   UNL     1       4.019  -3.375   3.578  1.00  0.00     0.237 C 
HETATM   13  O   UNL     1       2.949  -3.508   2.983  1.00  0.00    -0.272 OA
HETATM   14  N   UNL     1       4.770  -4.442   4.037  1.00  0.00    -0.355 N 
HETATM   15  H   UNL     1       5.458  -4.232   4.761  1.00  0.00     0.162 HD
BRANCH  14  16
HETATM   16  C   UNL     1       4.275  -5.812   3.921  1.00  0.00     0.084 C 
HETATM   17  C   UNL     1       3.375  -6.185   5.106  1.00  0.00     0.025 C 
HETATM   18  C   UNL     1       4.158  -6.551   6.366  1.00  0.00     0.002 C 
HETATM   19  C   UNL     1       5.183  -7.641   6.081  1.00  0.00     0.000 C 
HETATM   20  C   UNL     1       6.152  -7.203   4.990  1.00  0.00     0.002 C 
HETATM   21  C   UNL     1       5.419  -6.813   3.710  1.00  0.00     0.025 C 
ENDBRANCH  14  16
ENDBRANCH   1  12
TORSDOF 5
