REMARK  5 active torsions:
REMARK  status: ('A' for Active; 'I' for Inactive)
REMARK    1  A    between atoms: O_1  and  C_2 
REMARK    2  A    between atoms: C_2  and  C_4 
REMARK    3  A    between atoms: C_4  and  C_5 
REMARK    4  A    between atoms: C_8  and  N_9 
REMARK       I    between atoms: N_9  and  C_10 
REMARK       I    between atoms: C_10  and  N_12 
REMARK    5  A    between atoms: N_12  and  C_13 
ROOT
HETATM    1  C   UNL     1       4.695  -0.876  -0.040  1.00  0.00     0.027 A 
HETATM    2  C   UNL     1       5.342   0.306   0.278  1.00  0.00     0.078 A 
HETATM    3  S   UNL     1       7.045   0.048   0.351  1.00  0.00    -0.064 SA
HETATM    4  C   UNL     1       6.782  -1.603   0.059  1.00  0.00     0.152 A 
HETATM    5  N   UNL     1       5.539  -1.968  -0.152  1.00  0.00    -0.339 N 
ATOM      6  HN  UNL     1       5.238  -2.919  -0.367  1.00  0.00     0.168 HD
ENDROOT
BRANCH   4   7
HETATM    7  N   UNL     1       7.873  -2.422   0.076  1.00  0.00    -0.289 N 
HETATM    8  C   UNL     1       7.812  -3.792   0.068  1.00  0.00     0.322 C 
HETATM    9  O   UNL     1       8.850  -4.449   0.019  1.00  0.00    -0.247 OA
HETATM   10  N   UNL     1       6.561  -4.343   0.162  1.00  0.00    -0.338 N 
HETATM   11  H   UNL     1       5.787  -3.695   0.241  1.00  0.00     0.164 HD
HETATM   12  H   UNL     1       8.795  -2.015   0.127  1.00  0.00     0.172 HD
BRANCH  10  13
HETATM   13  C   UNL     1       6.254  -5.730   0.226  1.00  0.00     0.086 A 
HETATM   14  C   UNL     1       5.250  -6.318  -0.727  1.00  0.00     0.027 A 
HETATM   15  C   UNL     1       4.896  -6.160   0.720  1.00  0.00     0.027 A 
ENDBRANCH  10  13
ENDBRANCH   4   7
BRANCH   1  16
HETATM   16  C   UNL     1       3.226  -1.089  -0.235  1.00  0.00     0.167 C 
BRANCH  16  17
HETATM   17  C   UNL     1       2.830  -2.102  -1.292  1.00  0.00     0.145 C 
HETATM   18  O   UNL     1       1.653  -2.315  -1.567  1.00  0.00    -0.650 OA
BRANCH  17  19
HETATM   19  O   UNL     1       3.816  -2.779  -1.917  1.00  0.00    -0.776 OA
HETATM   20  H   UNL     1       4.709  -2.587  -1.551  1.00  0.00     0.167 HD
ENDBRANCH  17  19
ENDBRANCH  16  17
ENDBRANCH   1  16
TORSDOF 5
