REMARK  4 active torsions:
REMARK  status: ('A' for Active; 'I' for Inactive)
REMARK    1  A    between atoms: C_2  and  N_3 
REMARK    2  A    between atoms: N_4  and  C_16 
REMARK    3  A    between atoms: C_16  and  C_18 
REMARK    4  A    between atoms: C_18  and  O_22 
ROOT
HETATM    1  C   UNL     1       0.276  -0.784  -0.138  1.00  0.00     0.122 A 
HETATM    2  C   UNL     1      -0.940  -1.520  -0.130  1.00  0.00     0.136 A 
HETATM    3  N   UNL     1       1.467   1.060  -0.173  1.00  0.00    -0.324 N 
HETATM    4  C   UNL     1       0.184   0.601  -0.206  1.00  0.00     0.140 A 
HETATM    5  N   UNL     1       1.613  -1.155  -0.075  1.00  0.00    -0.346 N 
ATOM      6  HN  UNL     1       1.990  -2.102  -0.027  1.00  0.00     0.167 HD
HETATM    7  C   UNL     1       2.292  -0.026  -0.090  1.00  0.00     0.185 A 
HETATM    8  N   UNL     1      -2.084  -0.772  -0.177  1.00  0.00    -0.337 N 
ATOM      9  HN  UNL     1      -2.992  -1.236  -0.154  1.00  0.00     0.168 HD
HETATM   10  N   UNL     1      -0.928   1.346  -0.286  1.00  0.00    -0.336 N 
ATOM     11  HN  UNL     1      -0.940   2.363  -0.362  1.00  0.00     0.168 HD
HETATM   12  C   UNL     1      -2.024   0.570  -0.253  1.00  0.00     0.183 A 
ENDROOT
BRANCH   2  13
HETATM   13  N   UNL     1      -1.069  -2.896  -0.159  1.00  0.00    -0.356 N 
HETATM   14  C   UNL     1       0.101  -3.796  -0.284  1.00  0.00     0.082 C 
HETATM   15  C   UNL     1      -0.457  -5.201   0.085  1.00  0.00     0.031 C 
HETATM   16  C   UNL     1       0.658  -3.794  -1.702  1.00  0.00     0.032 C 
HETATM   17  C   UNL     1      -1.965  -5.006   0.048  1.00  0.00     0.010 C 
HETATM   18  C   UNL     1      -2.114  -3.585   0.605  1.00  0.00     0.090 C 
HETATM   19  C   UNL     1      -2.818  -6.005   0.815  1.00  0.00     0.007 C 
HETATM   20  C   UNL     1      -3.565  -3.142   0.475  1.00  0.00     0.026 C 
HETATM   21  C   UNL     1      -4.485  -4.131   1.207  1.00  0.00     0.002 C 
HETATM   22  C   UNL     1      -4.287  -5.576   0.744  1.00  0.00     0.001 C 
ENDBRANCH   2  13
BRANCH   3  23
HETATM   23  C   UNL     1       1.866   2.450  -0.074  1.00  0.00     0.171 C 
BRANCH  23  24
HETATM   24  C   UNL     1       2.138   3.158  -1.410  1.00  0.00     0.097 C 
HETATM   25  C   UNL     1       3.228   2.551  -2.272  1.00  0.00     0.068 C 
HETATM   26  C   UNL     1       3.756   3.739  -3.060  1.00  0.00     0.170 C 
HETATM   27  O   UNL     1       3.476   4.925  -2.309  1.00  0.00    -0.388 OA
HETATM   28  C   UNL     1       2.707   4.557  -1.154  1.00  0.00     0.207 C 
BRANCH  24  29
HETATM   29  O   UNL     1       0.944   3.295  -2.192  1.00  0.00    -0.386 OA
HETATM   30  H   UNL     1       0.420   2.474  -2.142  1.00  0.00     0.210 HD
ENDBRANCH  24  29
ENDBRANCH  23  24
ENDBRANCH   3  23
TORSDOF 4
