REMARK  6 active torsions:
REMARK  status: ('A' for Active; 'I' for Inactive)
REMARK    1  A    between atoms: S_2  and  C_4 
REMARK    2  A    between atoms: S_2  and  N_11 
REMARK    3  A    between atoms: C_4  and  C_5 
REMARK    4  A    between atoms: N_11  and  C_12 
REMARK    5  A    between atoms: C_12  and  C_13 
REMARK    6  A    between atoms: C_13  and  C_14 
ROOT
HETATM    1  N   UNL     1       3.333   0.320  -1.550  1.00  0.00    -0.220 NA
HETATM    2  H   UNL     1       3.459  -0.613  -1.949  1.00  0.00     0.139 HD
ENDROOT
BRANCH   1   3
HETATM    3  S   UNL     1       2.614   0.312  -0.016  1.00  0.00     0.209 S 
HETATM    4  O   UNL     1       1.204   0.543  -0.235  1.00  0.00    -0.211 OA
HETATM    5  O   UNL     1       3.405   1.165   0.840  1.00  0.00    -0.211 OA
BRANCH   3   6
HETATM    6  C   UNL     1       2.853  -1.394   0.469  1.00  0.00     0.162 C 
BRANCH   6   7
HETATM    7  C   UNL     1       2.179  -1.776   1.800  1.00  0.00     0.005 C 
HETATM    8  C   UNL     1       2.461  -3.256   2.119  1.00  0.00     0.032 C 
HETATM    9  C   UNL     1       1.652  -4.198   1.226  1.00  0.00     0.168 C 
HETATM   10  O   UNL     1       0.258  -3.902   1.273  1.00  0.00    -0.391 OA
HETATM   11  C   UNL     1      -0.047  -2.560   0.896  1.00  0.00     0.168 C 
HETATM   12  C   UNL     1       0.652  -1.589   1.837  1.00  0.00     0.032 C 
ENDBRANCH   6   7
ENDBRANCH   3   6
ENDBRANCH   1   3
BRANCH   1  13
HETATM   13  C   UNL     1       2.703   1.239  -2.550  1.00  0.00     0.110 C 
BRANCH  13  14
HETATM   14  C   UNL     1       2.762   2.703  -2.124  1.00  0.00     0.072 C 
BRANCH  14  15
HETATM   15  C   UNL     1       2.071   3.577  -3.137  1.00  0.00     0.010 A 
HETATM   16  C   UNL     1       0.951   4.326  -2.782  1.00  0.00     0.025 A 
HETATM   17  C   UNL     1       0.347   5.129  -3.744  1.00  0.00     0.003 A 
HETATM   18  C   UNL     1       0.873   5.164  -5.029  1.00  0.00     0.017 A 
HETATM   19  C   UNL     1       1.986   4.388  -5.301  1.00  0.00     0.088 A 
HETATM   20  N   UNL     1       2.592   3.597  -4.389  1.00  0.00    -0.369 N 
ATOM     21  HN  UNL     1       3.409   3.037  -4.632  1.00  0.00     0.165 HD
ENDBRANCH  14  15
ENDBRANCH  13  14
ENDBRANCH   1  13
TORSDOF 6
