REMARK  3 active torsions:
REMARK  status: ('A' for Active; 'I' for Inactive)
REMARK    1  A    between atoms: C_6  and  N_7 
REMARK       I    between atoms: N_7  and  C_8 
REMARK       I    between atoms: C_8  and  N_10 
REMARK    2  A    between atoms: N_10  and  C_11 
REMARK    3  A    between atoms: C_11  and  C_12 
ROOT
HETATM    1  N   UNL     1       5.606  -1.899  -0.260  1.00  0.00    -0.289 N 
HETATM    2  C   UNL     1       5.413  -3.235  -0.101  1.00  0.00     0.322 C 
HETATM    3  O   UNL     1       4.266  -3.681  -0.064  1.00  0.00    -0.247 OA
HETATM    4  N   UNL     1       6.518  -4.030  -0.065  1.00  0.00    -0.340 N 
HETATM    5  H   UNL     1       4.777  -1.347  -0.409  1.00  0.00     0.172 HD
HETATM    6  H   UNL     1       7.380  -3.578   0.237  1.00  0.00     0.164 HD
ENDROOT
BRANCH   1   7
HETATM    7  C   UNL     1       6.821  -1.284  -0.340  1.00  0.00     0.152 A 
HETATM    8  N   UNL     1       8.001  -1.790  -0.079  1.00  0.00    -0.345 N 
HETATM    9  C   UNL     1       8.965  -0.842  -0.354  1.00  0.00     0.104 A 
ATOM     10  HN  UNL     1       8.178  -2.732   0.271  1.00  0.00     0.167 HD
HETATM   11  C   UNL     1       8.496   0.360  -0.846  1.00  0.00    -0.003 A 
HETATM   12  C   UNL     1       9.255   1.547  -1.311  1.00  0.00     0.058 C 
HETATM   13  S   UNL     1       6.779   0.333  -0.874  1.00  0.00    -0.058 SA
ENDBRANCH   1   7
BRANCH   4  14
HETATM   14  C   UNL     1       6.418  -5.463   0.112  1.00  0.00     0.156 C 
BRANCH  14  15
HETATM   15  C   UNL     1       7.780  -6.151   0.030  1.00  0.00     0.139 C 
HETATM   16  C   UNL     1       7.675  -7.665   0.144  1.00  0.00     0.035 C 
HETATM   17  C   UNL     1       8.859  -8.076   0.992  1.00  0.00     0.029 C 
HETATM   18  C   UNL     1       9.577  -6.784   1.313  1.00  0.00     0.168 C 
HETATM   19  O   UNL     1       8.619  -5.741   1.125  1.00  0.00    -0.384 OA
ENDBRANCH  14  15
ENDBRANCH   4  14
TORSDOF 3
