REMARK  4 active torsions:
REMARK  status: ('A' for Active; 'I' for Inactive)
REMARK    1  A    between atoms: N_11  and  C_12 
REMARK    2  A    between atoms: C_12  and  C_13 
REMARK    3  A    between atoms: C_13  and  O_14 
REMARK    4  A    between atoms: C_13  and  C_15 
ROOT
HETATM    1  C   UNL     1       3.496  -1.080  -2.629  1.00  0.00     0.089 C 
HETATM    2  C   UNL     1       3.635  -0.472  -1.280  1.00  0.00     0.080 A 
HETATM    3  N   UNL     1       4.044   0.758  -1.049  1.00  0.00    -0.344 N 
ATOM      4  HN  UNL     1       4.320   1.454  -1.741  1.00  0.00     0.167 HD
HETATM    5  C   UNL     1       4.022   0.911   0.313  1.00  0.00     0.060 A 
HETATM    6  C   UNL     1       4.356   2.033   1.086  1.00  0.00     0.032 A 
HETATM    7  C   UNL     1       4.252   1.949   2.479  1.00  0.00     0.002 A 
HETATM    8  C   UNL     1       3.823   0.768   3.090  1.00  0.00     0.002 A 
HETATM    9  C   UNL     1       3.482  -0.358   2.333  1.00  0.00     0.032 A 
HETATM   10  C   UNL     1       3.589  -0.254   0.940  1.00  0.00     0.062 A 
HETATM   11  N   UNL     1       3.342  -1.122  -0.103  1.00  0.00    -0.332 N 
ENDROOT
BRANCH  11  12
HETATM   12  C   UNL     1       2.777  -2.458   0.025  1.00  0.00     0.167 C 
BRANCH  12  13
HETATM   13  C   UNL     1       3.841  -3.569   0.070  1.00  0.00     0.169 C 
BRANCH  13  14
HETATM   14  O   UNL     1       4.605  -3.480   1.274  1.00  0.00    -0.389 OA
HETATM   15  H   UNL     1       4.033  -3.743   2.013  1.00  0.00     0.210 HD
ENDBRANCH  13  14
BRANCH  13  16
HETATM   16  C   UNL     1       3.290  -4.984  -0.019  1.00  0.00    -0.028 A 
HETATM   17  C   UNL     1       4.114  -5.996  -0.543  1.00  0.00     0.010 A 
HETATM   18  C   UNL     1       3.666  -7.316  -0.638  1.00  0.00     0.001 A 
HETATM   19  C   UNL     1       2.388  -7.649  -0.197  1.00  0.00     0.000 A 
HETATM   20  C   UNL     1       1.564  -6.666   0.343  1.00  0.00     0.001 A 
HETATM   21  C   UNL     1       2.012  -5.344   0.437  1.00  0.00     0.010 A 
ENDBRANCH  13  16
ENDBRANCH  12  13
ENDBRANCH  11  12
TORSDOF 4
