REMARK  4 active torsions:
REMARK  status: ('A' for Active; 'I' for Inactive)
REMARK    1  A    between atoms: C_8  and  N_9 
REMARK       I    between atoms: N_9  and  C_10 
REMARK       I    between atoms: C_10  and  N_12 
REMARK    2  A    between atoms: N_12  and  C_13 
REMARK    3  A    between atoms: N_16  and  C_17 
REMARK    4  A    between atoms: C_17  and  C_18 
ROOT
HETATM    1  N   UNL     1       2.164  -2.569   0.645  1.00  0.00    -0.306 N 
HETATM    2  C   UNL     1       0.787  -2.599   0.636  1.00  0.00     0.321 C 
HETATM    3  O   UNL     1       0.046  -1.795   1.188  1.00  0.00    -0.247 OA
HETATM    4  N   UNL     1       0.298  -3.679  -0.063  1.00  0.00    -0.338 N 
HETATM    5  H   UNL     1       2.649  -3.413   0.379  1.00  0.00     0.171 HD
HETATM    6  H   UNL     1       0.912  -4.108  -0.739  1.00  0.00     0.164 HD
ENDROOT
BRANCH   4   7
HETATM    7  C   UNL     1      -1.146  -3.832  -0.245  1.00  0.00     0.089 C 
HETATM    8  C   UNL     1      -1.501  -5.293  -0.519  1.00  0.00     0.055 C 
HETATM    9  C   UNL     1      -1.215  -5.688  -1.971  1.00  0.00     0.274 C 
HETATM   10  N   UNL     1      -1.855  -4.804  -2.966  1.00  0.00     0.089 N 
HETATM   11  C   UNL     1      -1.410  -3.420  -2.743  1.00  0.00     0.274 C 
HETATM   12  C   UNL     1      -1.697  -2.899  -1.335  1.00  0.00     0.055 C 
BRANCH  10  13
HETATM   13  C   UNL     1      -3.318  -4.984  -2.952  1.00  0.00     0.279 C 
BRANCH  13  14
HETATM   14  C   UNL     1      -4.133  -4.178  -3.966  1.00  0.00     0.040 C 
HETATM   15  C   UNL     1      -5.624  -4.466  -3.840  1.00  0.00     0.035 C 
HETATM   16  C   UNL     1      -6.157  -4.364  -5.256  1.00  0.00     0.168 C 
HETATM   17  O   UNL     1      -5.047  -4.051  -6.105  1.00  0.00    -0.391 OA
HETATM   18  C   UNL     1      -3.862  -4.490  -5.422  1.00  0.00     0.173 C 
ENDBRANCH  13  14
ENDBRANCH  10  13
ENDBRANCH   4   7
BRANCH   1  19
HETATM   19  C   UNL     1       2.957  -1.550   1.229  1.00  0.00     0.077 A 
HETATM   20  C   UNL     1       4.315  -1.793   1.416  1.00  0.00     0.158 A 
HETATM   21  F   UNL     1       4.855  -2.961   1.040  1.00  0.00    -0.202 F 
HETATM   22  C   UNL     1       5.095  -0.820   2.015  1.00  0.00     0.132 A 
HETATM   23  N   UNL     1       4.619   0.380   2.424  1.00  0.00    -0.372 N 
HETATM   24  C   UNL     1       3.303   0.604   2.216  1.00  0.00     0.090 A 
ATOM     25  HN  UNL     1       5.221   1.076   2.865  1.00  0.00     0.164 HD
HETATM   26  C   UNL     1       2.447  -0.314   1.623  1.00  0.00     0.050 A 
ENDBRANCH   1  19
TORSDOF 4
