REMARK  4 active torsions:
REMARK  status: ('A' for Active; 'I' for Inactive)
REMARK       I    between atoms: C_2  and  N_3 
REMARK       I    between atoms: C_2  and  N_7 
REMARK    1  A    between atoms: N_3  and  C_4 
REMARK    2  A    between atoms: N_7  and  C_8 
REMARK    3  A    between atoms: N_13  and  C_14 
REMARK    4  A    between atoms: C_14  and  C_15 
ROOT
HETATM    1  C   UNL     1       4.431  -0.718   0.759  1.00  0.00     0.127 A 
HETATM    2  C   UNL     1       5.389  -0.050   1.491  1.00  0.00     0.068 A 
HETATM    3  C   UNL     1       6.623  -0.573   1.067  1.00  0.00     0.111 A 
HETATM    4  N   UNL     1       6.477  -1.522   0.143  1.00  0.00    -0.308 N 
ATOM      5  HN  UNL     1       7.206  -2.059  -0.327  1.00  0.00     0.186 HD
HETATM    6  N   UNL     1       5.140  -1.607  -0.026  1.00  0.00    -0.277 N 
ENDROOT
BRANCH   1   7
HETATM    7  N   UNL     1       3.043  -0.553   0.813  1.00  0.00    -0.293 N 
HETATM    8  C   UNL     1       2.427   0.535   1.492  1.00  0.00     0.322 C 
HETATM    9  O   UNL     1       3.069   1.440   1.997  1.00  0.00    -0.247 OA
HETATM   10  N   UNL     1       1.062   0.442   1.468  1.00  0.00    -0.338 N 
HETATM   11  H   UNL     1       0.593  -0.341   1.043  1.00  0.00     0.164 HD
HETATM   12  H   UNL     1       2.465  -1.205   0.310  1.00  0.00     0.172 HD
BRANCH  10  13
HETATM   13  C   UNL     1       0.256   1.480   2.043  1.00  0.00     0.086 A 
HETATM   14  C   UNL     1      -0.109   1.448   3.503  1.00  0.00     0.027 A 
HETATM   15  C   UNL     1      -1.167   1.234   2.461  1.00  0.00     0.027 A 
ENDBRANCH  10  13
ENDBRANCH   1   7
BRANCH   6  16
HETATM   16  C   UNL     1       4.616  -2.615  -0.936  1.00  0.00     0.155 C 
BRANCH  16  17
HETATM   17  C   UNL     1       4.511  -2.130  -2.350  1.00  0.00     0.005 A 
HETATM   18  C   UNL     1       3.559  -1.040  -2.781  1.00  0.00     0.007 A 
HETATM   19  C   UNL     1       3.279  -2.466  -3.157  1.00  0.00     0.007 A 
ENDBRANCH  16  17
ENDBRANCH   6  16
TORSDOF 4
