REMARK  4 active torsions:
REMARK  status: ('A' for Active; 'I' for Inactive)
REMARK    1  A    between atoms: C_2  and  C_3 
REMARK    2  A    between atoms: C_2  and  N_14 
REMARK    3  A    between atoms: C_3  and  N_4 
REMARK       I    between atoms: N_4  and  C_5 
REMARK       I    between atoms: C_5  and  N_7 
REMARK    4  A    between atoms: N_7  and  C_8 
ROOT
HETATM    1  N   UNL     1       2.740  -2.561  -0.083  1.00  0.00    -0.341 N 
HETATM    2  C   UNL     1       3.360  -3.083   1.012  1.00  0.00     0.322 C 
HETATM    3  O   UNL     1       4.359  -2.584   1.526  1.00  0.00    -0.247 OA
HETATM    4  N   UNL     1       2.793  -4.197   1.561  1.00  0.00    -0.289 N 
HETATM    5  H   UNL     1       1.920  -3.051  -0.429  1.00  0.00     0.164 HD
HETATM    6  H   UNL     1       3.223  -4.545   2.406  1.00  0.00     0.172 HD
ENDROOT
BRANCH   1   7
HETATM    7  C   UNL     1       3.133  -1.333  -0.735  1.00  0.00     0.159 C 
BRANCH   7   8
HETATM    8  C   UNL     1       2.564  -0.053  -0.058  1.00  0.00     0.236 C 
HETATM    9  C   UNL     1       1.024  -0.096  -0.090  1.00  0.00     0.044 C 
BRANCH   8  10
HETATM   10  N   UNL     1       3.077   1.165  -0.729  1.00  0.00     0.094 N 
HETATM   11  C   UNL     1       4.545   1.251  -0.687  1.00  0.00     0.273 C 
HETATM   12  C   UNL     1       4.887   2.735  -0.676  1.00  0.00     0.032 C 
HETATM   13  C   UNL     1       3.548   3.444  -0.725  1.00  0.00     0.032 C 
HETATM   14  C   UNL     1       2.583   2.421  -0.158  1.00  0.00     0.273 C 
ENDBRANCH   8  10
ENDBRANCH   7   8
ENDBRANCH   1   7
BRANCH   4  15
HETATM   15  C   UNL     1       1.663  -4.808   1.103  1.00  0.00     0.152 A 
HETATM   16  N   UNL     1       1.004  -4.541  -0.000  1.00  0.00    -0.346 N 
HETATM   17  C   UNL     1      -0.109  -5.355  -0.069  1.00  0.00     0.097 A 
ATOM     18  HN  UNL     1       1.271  -3.844  -0.695  1.00  0.00     0.167 HD
HETATM   19  C   UNL     1      -0.292  -6.197   1.007  1.00  0.00     0.070 A 
HETATM   20  S   UNL     1       1.019  -6.025   2.104  1.00  0.00    -0.064 SA
ENDBRANCH   4  15
TORSDOF 4
