REMARK  2 active torsions:
REMARK  status: ('A' for Active; 'I' for Inactive)
REMARK       I    between atoms: C_2  and  N_4 
REMARK    1  A    between atoms: N_4  and  C_5 
REMARK    2  A    between atoms: C_8  and  N_12 
ROOT
HETATM    1  C   UNL     1       4.695  -1.079  -0.443  1.00  0.00     0.107 A 
HETATM    2  C   UNL     1       5.266  -2.162  -1.095  1.00  0.00     0.051 A 
HETATM    3  C   UNL     1       6.646  -2.365  -0.997  1.00  0.00     0.034 A 
HETATM    4  C   UNL     1       7.458  -1.495  -0.268  1.00  0.00     0.046 A 
HETATM    5  C   UNL     1       6.776  -0.434   0.327  1.00  0.00     0.119 A 
HETATM    6  N   UNL     1       5.436  -0.214   0.260  1.00  0.00    -0.350 N 
ATOM      7  HN  UNL     1       5.009   0.584   0.730  1.00  0.00     0.166 HD
ENDROOT
BRANCH   4   8
HETATM    8  N   UNL     1       8.820  -1.670  -0.203  1.00  0.00    -0.376 N 
HETATM    9  C   UNL     1       9.762  -0.565   0.027  1.00  0.00     0.149 C 
HETATM   10  C   UNL     1      10.962  -0.744  -0.924  1.00  0.00     0.187 C 
HETATM   11  O   UNL     1      11.581  -2.036  -0.776  1.00  0.00    -0.388 OA
HETATM   12  C   UNL     1      10.630  -3.085  -1.030  1.00  0.00     0.187 C 
HETATM   13  C   UNL     1       9.436  -2.998  -0.069  1.00  0.00     0.149 C 
ENDBRANCH   4   8
BRANCH   1  14
HETATM   14  N   UNL     1       3.307  -0.928  -0.545  1.00  0.00    -0.314 N 
HETATM   15  C   UNL     1       2.562   0.065   0.059  1.00  0.00     0.219 C 
HETATM   16  C   UNL     1       1.091  -0.097  -0.219  1.00  0.00     0.117 C 
HETATM   17  O   UNL     1       2.962   0.985   0.762  1.00  0.00    -0.274 OA
HETATM   18  H   UNL     1       2.812  -1.620  -1.090  1.00  0.00     0.170 HD
ENDBRANCH   1  14
TORSDOF 2
