REMARK  4 active torsions:
REMARK  status: ('A' for Active; 'I' for Inactive)
REMARK    1  A    between atoms: C_5  and  C_6 
REMARK    2  A    between atoms: C_6  and  C_7 
REMARK    3  A    between atoms: C_7  and  N_8 
REMARK       I    between atoms: N_8  and  C_9 
REMARK    4  A    between atoms: C_9  and  C_11 
ROOT
HETATM    1  C   UNL     1       5.315  -3.163   0.107  1.00  0.00     0.129 C 
ENDROOT
BRANCH   1   2
HETATM    2  C   UNL     1       5.792  -1.713   0.071  1.00  0.00     0.084 C 
BRANCH   2   3
HETATM    3  C   UNL     1       4.640  -0.759   0.017  1.00  0.00     0.052 A 
HETATM    4  S   UNL     1       4.043  -0.208  -1.498  1.00  0.00    -0.087 SA
HETATM    5  C   UNL     1       2.888   0.752  -0.678  1.00  0.00     0.076 A 
HETATM    6  C   UNL     1       3.023   0.600   0.688  1.00  0.00     0.012 A 
HETATM    7  C   UNL     1       2.218   1.274   1.738  1.00  0.00     0.068 C 
HETATM    8  N   UNL     1       4.026  -0.277   1.077  1.00  0.00    -0.357 N 
ATOM      9  HN  UNL     1       4.254  -0.513   2.043  1.00  0.00     0.166 HD
ENDBRANCH   2   3
ENDBRANCH   1   2
BRANCH   1  10
HETATM   10  N   UNL     1       6.427  -4.103   0.109  1.00  0.00    -0.360 N 
HETATM   11  C   UNL     1       7.017  -4.522  -1.065  1.00  0.00     0.224 C 
HETATM   12  O   UNL     1       6.616  -4.168  -2.168  1.00  0.00    -0.273 OA
HETATM   13  H   UNL     1       6.817  -4.388   0.999  1.00  0.00     0.162 HD
BRANCH  11  14
HETATM   14  C   UNL     1       8.177  -5.477  -0.868  1.00  0.00     0.103 C 
HETATM   15  C   UNL     1       9.334  -4.864  -0.102  1.00  0.00     0.042 C 
HETATM   16  C   UNL     1      10.578  -5.443  -0.750  1.00  0.00     0.168 C 
HETATM   17  O   UNL     1      10.161  -6.254  -1.851  1.00  0.00    -0.390 OA
HETATM   18  C   UNL     1       8.819  -5.879  -2.179  1.00  0.00     0.181 C 
ENDBRANCH  11  14
ENDBRANCH   1  10
TORSDOF 4
