REMARK  6 active torsions:
REMARK  status: ('A' for Active; 'I' for Inactive)
REMARK    1  A    between atoms: C_2  and  C_3 
REMARK    2  A    between atoms: C_3  and  N_5 
REMARK       I    between atoms: N_5  and  C_6 
REMARK    3  A    between atoms: C_6  and  C_8 
REMARK    4  A    between atoms: C_8  and  N_9 
REMARK    5  A    between atoms: C_12  and  C_15 
REMARK    6  A    between atoms: C_15  and  O_17 
ROOT
HETATM    1  N   UNL     1       7.159   4.168  -0.647  1.00  0.00    -0.294 N 
HETATM    2  C   UNL     1       7.641   4.729  -1.794  1.00  0.00     0.112 A 
HETATM    3  C   UNL     1       8.091   5.979  -1.449  1.00  0.00     0.048 A 
HETATM    4  C   UNL     1       7.830   6.093  -0.064  1.00  0.00     0.055 A 
HETATM    5  N   UNL     1       7.271   4.974   0.431  1.00  0.00    -0.300 N 
ATOM      6  HN  UNL     1       6.996   4.780   1.394  1.00  0.00     0.187 HD
ENDROOT
BRANCH   1   7
HETATM    7  C   UNL     1       6.662   2.817  -0.490  1.00  0.00     0.250 C 
BRANCH   7   8
HETATM    8  C   UNL     1       5.178   2.744  -0.743  1.00  0.00     0.237 C 
HETATM    9  N   UNL     1       4.394   2.806   0.394  1.00  0.00    -0.355 N 
HETATM   10  H   UNL     1       4.815   3.187   1.236  1.00  0.00     0.162 HD
HETATM   11  O   UNL     1       4.718   2.605  -1.875  1.00  0.00    -0.272 OA
BRANCH   9  12
HETATM   12  C   UNL     1       2.939   2.767   0.320  1.00  0.00     0.080 C 
HETATM   13  C   UNL     1       2.388   4.155  -0.007  1.00  0.00     0.032 C 
BRANCH  12  14
HETATM   14  C   UNL     1       2.332   2.248   1.634  1.00  0.00     0.020 C 
HETATM   15  C   UNL     1       2.808   0.847   1.996  1.00  0.00     0.007 C 
ENDBRANCH  12  14
ENDBRANCH   9  12
ENDBRANCH   7   8
ENDBRANCH   1   7
BRANCH   4  16
HETATM   16  C   UNL     1       8.125   7.262   0.834  1.00  0.00     0.165 C 
HETATM   17  C   UNL     1       6.982   8.268   0.848  1.00  0.00     0.046 C 
BRANCH  16  18
HETATM   18  O   UNL     1       8.357   6.838   2.183  1.00  0.00    -0.390 OA
HETATM   19  H   UNL     1       7.933   5.957   2.228  1.00  0.00     0.210 HD
ENDBRANCH  16  18
ENDBRANCH   4  16
TORSDOF 6
