REMARK  9 active torsions:
REMARK  status: ('A' for Active; 'I' for Inactive)
REMARK    1  A    between atoms: C_2  and  C_4 
REMARK    2  A    between atoms: C_8  and  O_9 
REMARK    3  A    between atoms: O_9  and  C_10 
REMARK    4  A    between atoms: C_10  and  C_11 
REMARK    5  A    between atoms: C_11  and  O_12 
REMARK    6  A    between atoms: C_11  and  C_13 
REMARK    7  A    between atoms: C_13  and  N_14 
REMARK    8  A    between atoms: C_15  and  C_16 
REMARK    9  A    between atoms: C_16  and  O_17 
ROOT
HETATM    1  C   UNL     1       6.130  -0.228  -5.475  1.00  0.00     0.160 C 
ENDROOT
BRANCH   1   2
HETATM    2  C   UNL     1       5.390  -0.187  -4.122  1.00  0.00     0.209 C 
BRANCH   2   3
HETATM    3  O   UNL     1       5.065   1.181  -3.857  1.00  0.00    -0.349 OA
BRANCH   3   4
HETATM    4  C   UNL     1       4.390   1.492  -2.714  1.00  0.00     0.069 A 
HETATM    5  C   UNL     1       4.169   2.864  -2.537  1.00  0.00     0.037 A 
HETATM    6  C   UNL     1       3.476   3.342  -1.427  1.00  0.00     0.004 A 
HETATM    7  C   UNL     1       2.988   2.447  -0.477  1.00  0.00     0.015 A 
HETATM    8  C   UNL     1       3.200   1.072  -0.641  1.00  0.00     0.012 A 
HETATM    9  C   UNL     1       3.917   0.599  -1.755  1.00  0.00     0.051 A 
BRANCH   8  10
HETATM   10  C   UNL     1       2.661   0.077   0.333  1.00  0.00     0.155 C 
HETATM   11  C   UNL     1       1.777   0.553   1.455  1.00  0.00     0.096 C 
HETATM   12  O   UNL     1       2.939  -1.115   0.204  1.00  0.00    -0.293 OA
ENDBRANCH   8  10
ENDBRANCH   3   4
ENDBRANCH   2   3
ENDBRANCH   1   2
BRANCH   1  13
HETATM   13  O   UNL     1       7.345   0.529  -5.380  1.00  0.00    -0.392 OA
HETATM   14  H   UNL     1       7.865   0.195  -4.627  1.00  0.00     0.210 HD
ENDBRANCH   1  13
BRANCH   1  15
HETATM   15  C   UNL     1       6.445  -1.661  -5.910  1.00  0.00     0.164 C 
BRANCH  15  16
HETATM   16  N   UNL     1       6.983  -1.745  -7.262  1.00  0.00    -0.330 N 
HETATM   17  C   UNL     1       8.311  -1.731  -7.653  1.00  0.00     0.108 A 
HETATM   18  N   UNL     1       8.410  -1.916  -8.958  1.00  0.00    -0.342 N 
HETATM   19  C   UNL     1       7.130  -2.006  -9.432  1.00  0.00     0.060 A 
ATOM     20  HN  UNL     1       9.270  -1.979  -9.503  1.00  0.00     0.167 HD
HETATM   21  C   UNL     1       6.683  -2.177 -10.751  1.00  0.00     0.032 A 
HETATM   22  C   UNL     1       6.208  -1.902  -8.397  1.00  0.00     0.062 A 
HETATM   23  C   UNL     1       5.307  -2.248 -10.993  1.00  0.00     0.002 A 
HETATM   24  C   UNL     1       4.395  -2.142  -9.941  1.00  0.00     0.002 A 
HETATM   25  C   UNL     1       4.825  -1.962  -8.620  1.00  0.00     0.032 A 
BRANCH  17  26
HETATM   26  C   UNL     1       9.493  -1.460  -6.781  1.00  0.00     0.240 C 
BRANCH  26  27
HETATM   27  O   UNL     1       9.425  -2.251  -5.600  1.00  0.00    -0.393 OA
HETATM   28  H   UNL     1       9.878  -3.085  -5.816  1.00  0.00     0.209 HD
ENDBRANCH  26  27
ENDBRANCH  17  26
ENDBRANCH  15  16
ENDBRANCH   1  15
TORSDOF 9
