REMARK  6 active torsions:
REMARK  status: ('A' for Active; 'I' for Inactive)
REMARK    1  A    between atoms: C_5  and  C_6 
REMARK    2  A    between atoms: C_6  and  C_7 
REMARK    3  A    between atoms: C_7  and  C_8 
REMARK       I    between atoms: C_8  and  N_10 
REMARK    4  A    between atoms: N_10  and  C_11 
REMARK    5  A    between atoms: C_11  and  C_12 
REMARK    6  A    between atoms: C_12  and  C_13 
ROOT
HETATM    1  C   UNL     1       7.755   0.854  -0.695  1.00  0.00     0.217 C 
HETATM    2  O   UNL     1       8.687   0.091  -0.940  1.00  0.00    -0.274 OA
HETATM    3  N   UNL     1       7.551   2.026  -1.385  1.00  0.00    -0.361 N 
HETATM    4  H   UNL     1       6.700   2.554  -1.231  1.00  0.00     0.162 HD
ENDROOT
BRANCH   3   5
HETATM    5  C   UNL     1       8.305   2.416  -2.563  1.00  0.00     0.129 C 
BRANCH   5   6
HETATM    6  C   UNL     1       7.471   2.330  -3.845  1.00  0.00     0.084 C 
BRANCH   6   7
HETATM    7  C   UNL     1       6.283   3.251  -3.807  1.00  0.00     0.052 A 
HETATM    8  N   UNL     1       5.289   3.141  -2.945  1.00  0.00    -0.357 N 
HETATM    9  C   UNL     1       4.327   4.108  -3.199  1.00  0.00     0.012 A 
ATOM     10  HN  UNL     1       5.236   2.446  -2.200  1.00  0.00     0.166 HD
HETATM   11  C   UNL     1       3.094   4.134  -2.369  1.00  0.00     0.068 C 
HETATM   12  C   UNL     1       4.632   4.966  -4.237  1.00  0.00     0.076 A 
HETATM   13  S   UNL     1       6.142   4.546  -4.928  1.00  0.00    -0.087 SA
ENDBRANCH   6   7
ENDBRANCH   5   6
ENDBRANCH   3   5
BRANCH   1  14
HETATM   14  C   UNL     1       6.806   0.610   0.469  1.00  0.00     0.105 C 
BRANCH  14  15
HETATM   15  C   UNL     1       5.344   0.933   0.155  1.00  0.00     0.041 C 
BRANCH  15  16
HETATM   16  C   UNL     1       4.406   0.646   1.332  1.00  0.00     0.122 C 
HETATM   17  C   UNL     1       2.971   1.039   1.011  1.00  0.00     0.034 C 
HETATM   18  C   UNL     1       2.793   2.422   1.608  1.00  0.00     0.034 C 
HETATM   19  C   UNL     1       4.102   2.715   2.322  1.00  0.00     0.118 C 
HETATM   20  C   UNL     1       3.924   3.368   3.679  1.00  0.00     0.039 C 
HETATM   21  O   UNL     1       4.769   1.454   2.463  1.00  0.00    -0.381 OA
ENDBRANCH  15  16
ENDBRANCH  14  15
ENDBRANCH   1  14
TORSDOF 6
