REMARK  4 active torsions:
REMARK  status: ('A' for Active; 'I' for Inactive)
REMARK       I    between atoms: C_2  and  N_3 
REMARK    1  A    between atoms: C_2  and  C_13 
REMARK    2  A    between atoms: N_3  and  C_4 
REMARK    3  A    between atoms: C_4  and  C_5 
REMARK    4  A    between atoms: C_5  and  C_6 
ROOT
HETATM    1  C   UNL     1       2.101  -2.407   0.484  1.00  0.00     0.128 C 
ENDROOT
BRANCH   1   2
HETATM    2  N   UNL     1       2.796  -1.159   0.208  1.00  0.00    -0.360 N 
HETATM    3  C   UNL     1       3.231  -0.324   1.208  1.00  0.00     0.221 C 
HETATM    4  O   UNL     1       3.027  -0.509   2.401  1.00  0.00    -0.273 OA
HETATM    5  H   UNL     1       3.043  -0.953  -0.751  1.00  0.00     0.162 HD
BRANCH   3   6
HETATM    6  C   UNL     1       3.987   0.864   0.718  1.00  0.00     0.078 A 
HETATM    7  C   UNL     1       4.755   1.745   1.676  1.00  0.00     0.015 A 
HETATM    8  C   UNL     1       3.496   2.257   1.039  1.00  0.00     0.015 A 
ENDBRANCH   3   6
ENDBRANCH   1   2
BRANCH   1   9
HETATM    9  C   UNL     1       3.078  -3.554   0.732  1.00  0.00     0.076 C 
BRANCH   9  10
HETATM   10  C   UNL     1       2.373  -4.859   0.994  1.00  0.00     0.010 A 
HETATM   11  C   UNL     1       2.044  -5.236   2.294  1.00  0.00     0.025 A 
HETATM   12  C   UNL     1       1.441  -6.473   2.505  1.00  0.00     0.003 A 
HETATM   13  C   UNL     1       1.177  -7.296   1.417  1.00  0.00     0.017 A 
HETATM   14  C   UNL     1       1.518  -6.838   0.156  1.00  0.00     0.088 A 
HETATM   15  N   UNL     1       2.102  -5.641  -0.080  1.00  0.00    -0.369 N 
ATOM     16  HN  UNL     1       2.329  -5.339  -1.027  1.00  0.00     0.165 HD
ENDBRANCH   9  10
ENDBRANCH   1   9
TORSDOF 4
