REMARK  2 active torsions:
REMARK  status: ('A' for Active; 'I' for Inactive)
REMARK    1  A    between atoms: C_5  and  C_6 
REMARK    2  A    between atoms: C_9  and  C_13 
ROOT
HETATM    1  C   UNL     2      -1.181  -1.994  -2.151  1.00  0.00     0.152 A 
HETATM    2  N   UNL     2      -1.641  -1.781  -3.397  1.00  0.00    -0.326 N 
ATOM      3  HN  UNL     2      -1.362  -2.233  -4.267  1.00  0.00     0.169 HD
HETATM    4  C   UNL     2      -2.564  -0.819  -3.204  1.00  0.00     0.109 A 
HETATM    5  N   UNL     2      -2.660  -0.483  -1.901  1.00  0.00    -0.247 N 
ATOM      6  HN  UNL     2      -3.283   0.211  -1.488  1.00  0.00     0.196 HD
HETATM    7  O   UNL     2      -1.795  -1.227  -1.281  1.00  0.00    -0.222 OA
ENDROOT
BRANCH   4   8
HETATM    8  C   UNL     2      -3.358  -0.177  -4.319  1.00  0.00     0.083 C 
HETATM    9  C   UNL     2      -2.422   0.442  -5.376  1.00  0.00     0.016 C 
HETATM   10  C   UNL     2      -1.633   1.610  -4.771  1.00  0.00     0.031 C 
HETATM   11  C   UNL     2      -2.605   2.645  -4.188  1.00  0.00     0.269 C 
HETATM   12  N   UNL     2      -3.488   2.022  -3.189  1.00  0.00     0.084 N 
HETATM   13  C   UNL     2      -4.285   0.935  -3.785  1.00  0.00     0.281 C 
HETATM   14  H   UNL     2      -4.138   2.751  -2.814  1.00  0.00     0.315 HD
ENDBRANCH   4   8
BRANCH   1  15
HETATM   15  C   UNL     2      -0.094  -2.961  -1.803  1.00  0.00     0.063 A 
HETATM   16  C   UNL     2       1.017  -2.163  -1.125  1.00  0.00     0.013 A 
HETATM   17  C   UNL     2       1.260  -2.793  -2.481  1.00  0.00     0.013 A 
ENDBRANCH   1  15
TORSDOF 2
