REMARK  3 active torsions:
REMARK  status: ('A' for Active; 'I' for Inactive)
REMARK    1  A    between atoms: O_2  and  C_3 
REMARK    2  A    between atoms: C_6  and  N_7 
REMARK       I    between atoms: N_7  and  C_8 
REMARK       I    between atoms: C_8  and  N_10 
REMARK    3  A    between atoms: N_10  and  C_11 
REMARK       I    between atoms: N_14  and  C_17 
ROOT
HETATM    1  N   UNL     1       5.259   4.899   1.551  1.00  0.00    -0.308 N 
HETATM    2  C   UNL     1       6.501   4.916   2.148  1.00  0.00     0.321 C 
HETATM    3  O   UNL     1       6.860   4.193   3.067  1.00  0.00    -0.247 OA
HETATM    4  N   UNL     1       7.349   5.831   1.558  1.00  0.00    -0.338 N 
HETATM    5  H   UNL     1       5.007   5.697   0.989  1.00  0.00     0.170 HD
HETATM    6  H   UNL     1       6.907   6.694   1.280  1.00  0.00     0.164 HD
ENDROOT
BRANCH   1   7
HETATM    7  C   UNL     1       4.251   3.951   1.834  1.00  0.00     0.051 A 
HETATM    8  C   UNL     1       4.508   2.712   2.419  1.00  0.00     0.035 A 
HETATM    9  C   UNL     1       3.455   1.851   2.716  1.00  0.00     0.058 A 
HETATM   10  C   UNL     1       2.168   2.256   2.411  1.00  0.00     0.141 A 
HETATM   11  N   UNL     1       1.876   3.423   1.798  1.00  0.00    -0.345 N 
HETATM   12  C   UNL     1       2.925   4.235   1.517  1.00  0.00     0.119 A 
ATOM     13  HN  UNL     1       0.918   3.680   1.559  1.00  0.00     0.167 HD
BRANCH  10  14
HETATM   14  O   UNL     1       1.159   1.388   2.776  1.00  0.00    -0.341 OA
HETATM   15  C   UNL     1      -0.139   1.908   2.520  1.00  0.00     0.211 C 
ENDBRANCH  10  14
ENDBRANCH   1   7
BRANCH   4  16
HETATM   16  C   UNL     1       8.746   5.919   2.002  1.00  0.00     0.089 C 
HETATM   17  C   UNL     1       9.486   7.051   1.278  1.00  0.00     0.045 C 
HETATM   18  C   UNL     1       9.740   6.731  -0.197  1.00  0.00     0.127 C 
HETATM   19  N   UNL     1      10.361   5.417  -0.372  1.00  0.00    -0.352 N 
HETATM   20  C   UNL     1       9.665   4.316   0.297  1.00  0.00     0.127 C 
HETATM   21  C   UNL     1      11.398   5.092  -1.232  1.00  0.00     0.215 C 
HETATM   22  C   UNL     1       9.523   4.610   1.782  1.00  0.00     0.045 C 
HETATM   23  O   UNL     1      11.783   3.929  -1.382  1.00  0.00    -0.274 OA
HETATM   24  C   UNL     1      12.116   6.176  -1.995  1.00  0.00     0.117 C 
ENDBRANCH   4  16
TORSDOF 3
