REMARK  4 active torsions:
REMARK  status: ('A' for Active; 'I' for Inactive)
REMARK    1  A    between atoms: C_2  and  C_3 
REMARK    2  A    between atoms: C_3  and  C_4 
REMARK       I    between atoms: N_10  and  C_11 
REMARK       I    between atoms: C_11  and  N_13 
REMARK    3  A    between atoms: N_13  and  C_14 
REMARK    4  A    between atoms: C_14  and  C_15 
ROOT
HETATM    1  C   UNL     1       8.343  -5.686   0.661  1.00  0.00     0.069 A 
HETATM    2  N   UNL     1       9.588  -5.409   0.987  1.00  0.00    -0.296 N 
ATOM      3  HN  UNL     1      10.307  -6.115   1.148  1.00  0.00     0.187 HD
HETATM    4  N   UNL     1       9.804  -4.057   1.085  1.00  0.00    -0.279 N 
ATOM      5  HN  UNL     1      10.704  -3.640   1.321  1.00  0.00     0.189 HD
HETATM    6  C   UNL     1       8.718  -3.364   0.840  1.00  0.00     0.169 A 
HETATM    7  N   UNL     1       8.574  -2.007   0.808  1.00  0.00    -0.288 N 
HETATM    8  C   UNL     1       9.600  -1.120   0.935  1.00  0.00     0.322 C 
HETATM    9  O   UNL     1       9.358   0.083   0.995  1.00  0.00    -0.247 OA
HETATM   10  N   UNL     1      10.862  -1.627   0.962  1.00  0.00    -0.340 N 
HETATM   11  S   UNL     1       7.332  -4.298   0.508  1.00  0.00    -0.038 SA
HETATM   12  H   UNL     1       7.651  -1.616   0.696  1.00  0.00     0.172 HD
HETATM   13  H   UNL     1      10.985  -2.620   0.787  1.00  0.00     0.164 HD
ENDROOT
BRANCH  10  14
HETATM   14  C   UNL     1      12.075  -0.842   1.067  1.00  0.00     0.156 C 
BRANCH  14  15
HETATM   15  C   UNL     1      12.750  -0.552  -0.278  1.00  0.00     0.139 C 
HETATM   16  C   UNL     1      11.944   0.269  -1.272  1.00  0.00     0.035 C 
HETATM   17  C   UNL     1      12.373  -0.252  -2.629  1.00  0.00     0.029 C 
HETATM   18  C   UNL     1      13.342  -1.377  -2.330  1.00  0.00     0.168 C 
HETATM   19  O   UNL     1      13.092  -1.765  -0.973  1.00  0.00    -0.384 OA
ENDBRANCH  14  15
ENDBRANCH  10  14
BRANCH   1  20
HETATM   20  C   UNL     1       7.841  -7.069   0.416  1.00  0.00     0.066 C 
BRANCH  20  21
HETATM   21  C   UNL     1       7.887  -7.905   1.697  1.00  0.00     0.002 C 
HETATM   22  C   UNL     1       7.448  -9.336   1.441  1.00  0.00     0.005 C 
ENDBRANCH  20  21
ENDBRANCH   1  20
TORSDOF 4
