REMARK  4 active torsions:
REMARK  status: ('A' for Active; 'I' for Inactive)
REMARK    1  A    between atoms: C_4  and  C_5 
REMARK    2  A    between atoms: C_5  and  N_6 
REMARK       I    between atoms: N_6  and  C_7 
REMARK    3  A    between atoms: C_7  and  C_9 
REMARK    4  A    between atoms: C_9  and  N_10 
ROOT
HETATM    1  C   UNL     1       2.084  -5.304  -2.833  1.00  0.00     0.235 C 
ENDROOT
BRANCH   1   2
HETATM    2  C   UNL     1       1.758  -3.803  -2.816  1.00  0.00     0.235 C 
HETATM    3  N   UNL     1       2.591  -3.030  -2.029  1.00  0.00    -0.359 N 
HETATM    4  H   UNL     1       3.480  -3.403  -1.719  1.00  0.00     0.162 HD
HETATM    5  O   UNL     1       0.800  -3.325  -3.418  1.00  0.00    -0.272 OA
BRANCH   3   6
HETATM    6  C   UNL     1       2.357  -1.610  -1.918  1.00  0.00     0.127 C 
BRANCH   6   7
HETATM    7  C   UNL     1       3.435  -0.954  -1.115  1.00  0.00     0.007 A 
HETATM    8  C   UNL     1       4.024   0.386  -1.520  1.00  0.00    -0.013 A 
HETATM    9  C   UNL     1       3.616   1.102  -2.765  1.00  0.00     0.010 C 
HETATM   10  C   UNL     1       4.858  -0.865  -1.615  1.00  0.00     0.011 A 
ENDBRANCH   6   7
ENDBRANCH   3   6
ENDBRANCH   1   2
BRANCH   1  11
HETATM   11  N   UNL     1       2.231  -5.926  -4.155  1.00  0.00    -0.301 N 
HETATM   12  C   UNL     1       1.196  -5.872  -5.070  1.00  0.00     0.102 C 
HETATM   13  C   UNL     1       1.237  -6.533  -6.230  1.00  0.00     0.092 C 
HETATM   14  C   UNL     1       2.414  -7.360  -6.533  1.00  0.00     0.250 C 
HETATM   15  O   UNL     1       2.444  -8.082  -7.522  1.00  0.00    -0.268 OA
HETATM   16  N   UNL     1       3.435  -7.284  -5.633  1.00  0.00    -0.275 N 
HETATM   17  C   UNL     1       3.379  -6.671  -4.408  1.00  0.00     0.329 C 
HETATM   18  H   UNL     1       4.236  -7.870  -5.805  1.00  0.00     0.173 HD
HETATM   19  O   UNL     1       4.296  -6.821  -3.603  1.00  0.00    -0.246 OA
ENDBRANCH   1  11
TORSDOF 4
