REMARK  4 active torsions:
REMARK  status: ('A' for Active; 'I' for Inactive)
REMARK    1  A    between atoms: N_5  and  C_8 
REMARK    2  A    between atoms: C_8  and  C_11 
REMARK    3  A    between atoms: C_11  and  N_12 
REMARK       I    between atoms: N_12  and  C_13 
REMARK       I    between atoms: C_13  and  N_15 
REMARK    4  A    between atoms: N_15  and  C_16 
ROOT
HETATM    1  N   UNL     1       4.670  -0.154  -5.261  1.00  0.00    -0.340 N 
HETATM    2  C   UNL     1       5.066   0.632  -6.327  1.00  0.00     0.322 C 
HETATM    3  O   UNL     1       5.873   1.540  -6.189  1.00  0.00    -0.247 OA
HETATM    4  N   UNL     1       4.398   0.281  -7.471  1.00  0.00    -0.289 N 
HETATM    5  H   UNL     1       4.422  -1.106  -5.484  1.00  0.00     0.164 HD
HETATM    6  H   UNL     1       3.552  -0.255  -7.389  1.00  0.00     0.172 HD
ENDROOT
BRANCH   1   7
HETATM    7  C   UNL     1       5.292   0.075  -3.969  1.00  0.00     0.165 C 
BRANCH   7   8
HETATM    8  C   UNL     1       4.769  -0.842  -2.807  1.00  0.00     0.168 C 
HETATM    9  C   UNL     1       5.584  -0.425  -1.564  1.00  0.00     0.050 C 
HETATM   10  C   UNL     1       5.197  -2.292  -3.158  1.00  0.00     0.050 C 
BRANCH   8  11
HETATM   11  N   UNL     1       3.282  -0.762  -2.683  1.00  0.00     0.102 N 
HETATM   12  C   UNL     1       2.713   0.566  -2.368  1.00  0.00     0.303 C 
HETATM   13  C   UNL     1       2.658   0.937  -0.864  1.00  0.00     0.302 C 
HETATM   14  N   UNL     1       2.098  -0.084   0.039  1.00  0.00     0.087 N 
HETATM   15  C   UNL     1       0.640  -0.009   0.090  1.00  0.00     0.310 C 
HETATM   16  C   UNL     1       2.555  -1.435  -0.318  1.00  0.00     0.302 C 
HETATM   17  C   UNL     1       2.601  -1.755  -1.831  1.00  0.00     0.303 C 
ENDBRANCH   8  11
ENDBRANCH   7   8
ENDBRANCH   1   7
BRANCH   4  18
HETATM   18  C   UNL     1       4.603   0.953  -8.640  1.00  0.00     0.152 A 
HETATM   19  N   UNL     1       5.585   1.750  -8.979  1.00  0.00    -0.346 N 
HETATM   20  C   UNL     1       5.332   2.284 -10.224  1.00  0.00     0.097 A 
ATOM     21  HN  UNL     1       6.409   1.945  -8.410  1.00  0.00     0.167 HD
HETATM   22  C   UNL     1       4.165   1.859 -10.824  1.00  0.00     0.070 A 
HETATM   23  S   UNL     1       3.381   0.718  -9.810  1.00  0.00    -0.064 SA
ENDBRANCH   4  18
TORSDOF 4
