REMARK  6 active torsions:
REMARK  status: ('A' for Active; 'I' for Inactive)
REMARK       I    between atoms: N_1  and  C_2 
REMARK    1  A    between atoms: C_2  and  C_4 
REMARK    2  A    between atoms: C_4  and  C_5 
REMARK    3  A    between atoms: C_8  and  N_9 
REMARK       I    between atoms: N_9  and  C_10 
REMARK    4  A    between atoms: C_10  and  C_12 
REMARK    5  A    between atoms: C_12  and  C_13 
REMARK    6  A    between atoms: C_13  and  C_14 
ROOT
HETATM    1  C   UNL     1       3.483  -1.800  -0.510  1.00  0.00     0.026 A 
HETATM    2  C   UNL     1       3.087  -2.029   0.796  1.00  0.00     0.078 A 
HETATM    3  S   UNL     1       4.317  -2.882   1.642  1.00  0.00    -0.064 SA
HETATM    4  C   UNL     1       5.291  -2.813   0.246  1.00  0.00     0.151 A 
HETATM    5  N   UNL     1       4.753  -2.268  -0.811  1.00  0.00    -0.339 N 
ATOM      6  HN  UNL     1       5.201  -2.197  -1.725  1.00  0.00     0.168 HD
ENDROOT
BRANCH   4   7
HETATM    7  N   UNL     1       6.538  -3.349   0.381  1.00  0.00    -0.307 N 
HETATM    8  C   UNL     1       7.502  -3.181  -0.588  1.00  0.00     0.223 C 
HETATM    9  O   UNL     1       7.427  -2.461  -1.578  1.00  0.00    -0.273 OA
HETATM   10  H   UNL     1       6.747  -3.814   1.251  1.00  0.00     0.171 HD
BRANCH   8  11
HETATM   11  C   UNL     1       8.765  -3.970  -0.294  1.00  0.00     0.103 C 
BRANCH  11  12
HETATM   12  C   UNL     1       8.500  -5.473  -0.345  1.00  0.00     0.014 C 
BRANCH  12  13
HETATM   13  C   UNL     1       9.745  -6.312  -0.055  1.00  0.00    -0.014 C 
HETATM   14  C   UNL     1       9.447  -7.816  -0.108  1.00  0.00     0.004 C 
HETATM   15  C   UNL     1      10.368  -8.472   0.921  1.00  0.00     0.000 C 
HETATM   16  C   UNL     1      11.179  -7.345   1.546  1.00  0.00     0.000 C 
HETATM   17  C   UNL     1      10.324  -6.106   1.343  1.00  0.00     0.004 C 
ENDBRANCH  12  13
ENDBRANCH  11  12
ENDBRANCH   8  11
ENDBRANCH   4   7
BRANCH   1  18
HETATM   18  C   UNL     1       2.702  -1.133  -1.596  1.00  0.00     0.160 C 
BRANCH  18  19
HETATM   19  C   UNL     1       3.377   0.103  -2.162  1.00  0.00     0.221 C 
HETATM   20  N   UNL     1       4.730   0.063  -2.315  1.00  0.00    -0.370 N 
HETATM   21  H   UNL     1       5.218   0.859  -2.697  1.00  0.00     0.159 HD
HETATM   22  H   UNL     1       5.276  -0.736  -1.987  1.00  0.00     0.159 HD
HETATM   23  O   UNL     1       2.737   1.079  -2.548  1.00  0.00    -0.273 OA
ENDBRANCH  18  19
ENDBRANCH   1  18
TORSDOF 6
