REMARK  5 active torsions:
REMARK  status: ('A' for Active; 'I' for Inactive)
REMARK    1  A    between atoms: C_2  and  N_3 
REMARK    2  A    between atoms: C_2  and  C_12 
REMARK    3  A    between atoms: N_3  and  C_4 
REMARK    4  A    between atoms: C_4  and  C_5 
REMARK    5  A    between atoms: C_5  and  N_6 
REMARK       I    between atoms: C_12  and  N_14 
ROOT
HETATM    1  C   UNL     1       1.009  -0.077  -0.026  1.00  0.00     0.053 C 
HETATM    2  C   UNL     1       2.538  -0.001   0.075  1.00  0.00     0.307 C 
ENDROOT
BRANCH   2   3
HETATM    3  N   UNL     1       2.993   0.450   1.413  1.00  0.00     0.098 N 
HETATM    4  H   UNL     1       4.011   0.406   1.446  1.00  0.00     0.317 HD
BRANCH   3   5
HETATM    5  C   UNL     1       2.537   1.804   1.758  1.00  0.00     0.292 C 
BRANCH   5   6
HETATM    6  C   UNL     1       3.002   2.219   3.157  1.00  0.00     0.178 C 
BRANCH   6   7
HETATM    7  N   UNL     1       2.514   3.544   3.498  1.00  0.00    -0.302 N 
HETATM    8  C   UNL     1       1.349   3.847   4.145  1.00  0.00     0.111 A 
HETATM    9  C   UNL     1       1.305   5.220   4.224  1.00  0.00     0.037 A 
HETATM   10  C   UNL     1       2.489   5.650   3.598  1.00  0.00     0.108 A 
HETATM   11  N   UNL     1       3.226   4.632   3.147  1.00  0.00    -0.310 N 
ATOM     12  HN  UNL     1       4.118   4.669   2.653  1.00  0.00     0.186 HD
ENDBRANCH   6   7
ENDBRANCH   5   6
ENDBRANCH   3   5
ENDBRANCH   2   3
BRANCH   2  13
HETATM   13  C   UNL     1       3.121  -1.420  -0.188  1.00  0.00     0.252 C 
HETATM   14  O   UNL     1       2.453  -2.426   0.077  1.00  0.00    -0.271 OA
HETATM   15  N   UNL     1       4.416  -1.535  -0.688  1.00  0.00    -0.350 N 
HETATM   16  C   UNL     1       5.309  -0.440  -1.069  1.00  0.00     0.126 C 
HETATM   17  C   UNL     1       4.971  -2.874  -0.892  1.00  0.00     0.126 C 
HETATM   18  C   UNL     1       5.756  -0.590  -2.526  1.00  0.00     0.020 C 
HETATM   19  C   UNL     1       6.364  -1.969  -2.782  1.00  0.00     0.003 C 
HETATM   20  C   UNL     1       5.407  -3.074  -2.341  1.00  0.00     0.020 C 
ENDBRANCH   2  13
TORSDOF 5
