REMARK  7 active torsions:
REMARK  status: ('A' for Active; 'I' for Inactive)
REMARK    1  A    between atoms: N_2  and  C_3 
REMARK    2  A    between atoms: N_2  and  C_19 
REMARK    3  A    between atoms: C_3  and  C_4 
REMARK    4  A    between atoms: C_4  and  O_5 
REMARK    5  A    between atoms: C_4  and  C_6 
REMARK    6  A    between atoms: C_6  and  N_7 
REMARK    7  A    between atoms: C_19  and  C_20 
ROOT
HETATM    1  C   UNL     1       2.112  -0.635   2.452  1.00  0.00     0.164 C 
ENDROOT
BRANCH   1   2
HETATM    2  C   UNL     1       2.559  -1.017   1.018  1.00  0.00     0.305 C 
BRANCH   2   3
HETATM    3  N   UNL     1       1.866  -0.270  -0.057  1.00  0.00     0.091 N 
HETATM    4  C   UNL     1       2.276  -0.808  -1.365  1.00  0.00     0.310 C 
BRANCH   3   5
HETATM    5  C   UNL     1       2.130   1.185   0.029  1.00  0.00     0.319 C 
BRANCH   5   6
HETATM    6  C   UNL     1       1.341   1.963  -0.975  1.00  0.00     0.028 C 
HETATM    7  C   UNL     1      -0.026   2.067  -1.122  1.00  0.00     0.105 C 
HETATM    8  N   UNL     1      -0.459   2.758  -2.235  1.00  0.00    -0.363 N 
HETATM    9  C   UNL     1       0.584   3.187  -2.917  1.00  0.00     0.047 C 
ATOM     10  HN  UNL     1      -1.434   2.913  -2.490  1.00  0.00     0.165 HD
HETATM   11  C   UNL     1       0.511   3.844  -4.245  1.00  0.00     0.076 C 
HETATM   12  S   UNL     1       2.116   2.876  -2.203  1.00  0.00    -0.079 SA
ENDBRANCH   5   6
ENDBRANCH   3   5
ENDBRANCH   2   3
ENDBRANCH   1   2
BRANCH   1  13
HETATM   13  O   UNL     1       0.701  -0.836   2.604  1.00  0.00    -0.392 OA
HETATM   14  H   UNL     1       0.402  -1.474   1.934  1.00  0.00     0.210 HD
ENDBRANCH   1  13
BRANCH   1  15
HETATM   15  C   UNL     1       2.852  -1.467   3.503  1.00  0.00     0.163 C 
BRANCH  15  16
HETATM   16  N   UNL     1       2.534  -1.023   4.850  1.00  0.00    -0.339 N 
HETATM   17  C   UNL     1       1.529  -1.540   5.623  1.00  0.00     0.184 A 
HETATM   18  N   UNL     1       1.414  -0.905   6.763  1.00  0.00    -0.350 N 
HETATM   19  C   UNL     1       2.358   0.090   6.712  1.00  0.00     0.060 A 
ATOM     20  HN  UNL     1       0.764  -1.106   7.523  1.00  0.00     0.166 HD
HETATM   21  C   UNL     1       2.635   1.095   7.648  1.00  0.00     0.039 A 
HETATM   22  C   UNL     1       3.090   0.033   5.533  1.00  0.00     0.062 A 
HETATM   23  C   UNL     1       3.648   2.039   7.385  1.00  0.00    -0.054 A 
HETATM   24  C   UNL     1       3.896   3.115   8.407  1.00  0.00     0.049 C 
HETATM   25  C   UNL     1       4.386   1.959   6.184  1.00  0.00    -0.054 A 
HETATM   26  C   UNL     1       5.466   2.948   5.831  1.00  0.00     0.049 C 
HETATM   27  C   UNL     1       4.112   0.945   5.241  1.00  0.00     0.039 A 
ENDBRANCH  15  16
ENDBRANCH   1  15
TORSDOF 7
