REMARK  5 active torsions:
REMARK  status: ('A' for Active; 'I' for Inactive)
REMARK    1  A    between atoms: C_7  and  C_8 
REMARK    2  A    between atoms: C_8  and  C_9 
REMARK       I    between atoms: C_9  and  N_11 
REMARK    3  A    between atoms: N_11  and  C_12 
REMARK    4  A    between atoms: C_12  and  C_13 
REMARK    5  A    between atoms: C_13  and  C_14 
ROOT
HETATM    1  C   UNL     1       6.807   0.018  -0.073  1.00  0.00     0.149 C 
ENDROOT
BRANCH   1   2
HETATM    2  C   UNL     1       5.833   0.172   1.069  1.00  0.00     0.041 A 
HETATM    3  C   UNL     1       4.490   0.312   1.017  1.00  0.00     0.018 A 
HETATM    4  N   UNL     1       3.692   0.493   2.126  1.00  0.00    -0.349 N 
HETATM    5  C   UNL     1       3.705   0.306  -0.270  1.00  0.00     0.069 C 
HETATM    6  C   UNL     1       4.251   0.497   3.285  1.00  0.00     0.080 A 
ATOM      7  HN  UNL     1       2.685   0.620   2.031  1.00  0.00     0.167 HD
HETATM    8  C   UNL     1       3.434   0.694   4.531  1.00  0.00     0.089 C 
HETATM    9  N   UNL     1       5.584   0.331   3.468  1.00  0.00    -0.313 N 
HETATM   10  C   UNL     1       6.443   0.215   2.419  1.00  0.00     0.255 A 
HETATM   11  H   UNL     1       6.003   0.366   4.387  1.00  0.00     0.170 HD
HETATM   12  O   UNL     1       7.659   0.185   2.576  1.00  0.00    -0.268 OA
ENDBRANCH   1   2
BRANCH   1  13
HETATM   13  C   UNL     1       7.468  -1.362  -0.060  1.00  0.00     0.222 C 
HETATM   14  O   UNL     1       6.788  -2.388  -0.068  1.00  0.00    -0.273 OA
HETATM   15  N   UNL     1       8.859  -1.395  -0.086  1.00  0.00    -0.361 N 
HETATM   16  H   UNL     1       9.368  -0.570   0.214  1.00  0.00     0.162 HD
BRANCH  15  17
HETATM   17  C   UNL     1       9.499  -2.703  -0.012  1.00  0.00     0.127 C 
BRANCH  17  18
HETATM   18  C   UNL     1      11.034  -2.738   0.081  1.00  0.00     0.053 C 
BRANCH  18  19
HETATM   19  C   UNL     1      11.572  -4.170   0.000  1.00  0.00    -0.082 A 
HETATM   20  C   UNL     1      12.383  -4.563  -0.993  1.00  0.00    -0.024 A 
HETATM   21  C   UNL     1      12.910  -5.948  -1.182  1.00  0.00     0.027 A 
HETATM   22  C   UNL     1      12.518  -6.997  -0.147  1.00  0.00     0.004 A 
HETATM   23  C   UNL     1      11.627  -6.572   1.013  1.00  0.00     0.005 A 
HETATM   24  C   UNL     1      11.130  -5.126   1.077  1.00  0.00     0.034 A 
ENDBRANCH  18  19
ENDBRANCH  17  18
ENDBRANCH  15  17
ENDBRANCH   1  13
TORSDOF 5
