REMARK  4 active torsions:
REMARK  status: ('A' for Active; 'I' for Inactive)
REMARK    1  A    between atoms: C_2  and  C_3 
REMARK    2  A    between atoms: C_2  and  N_15 
REMARK    3  A    between atoms: C_3  and  N_4 
REMARK       I    between atoms: N_4  and  C_5 
REMARK       I    between atoms: C_5  and  N_7 
REMARK    4  A    between atoms: N_7  and  C_8 
ROOT
HETATM    1  N   UNL     1       2.688  -2.582  -0.382  1.00  0.00    -0.341 N 
HETATM    2  C   UNL     1       3.290  -3.251   0.639  1.00  0.00     0.322 C 
HETATM    3  O   UNL     1       4.276  -2.829   1.233  1.00  0.00    -0.247 OA
HETATM    4  N   UNL     1       2.729  -4.436   1.020  1.00  0.00    -0.288 N 
HETATM    5  H   UNL     1       1.870  -2.997  -0.821  1.00  0.00     0.164 HD
HETATM    6  H   UNL     1       3.154  -4.893   1.812  1.00  0.00     0.172 HD
ENDROOT
BRANCH   1   7
HETATM    7  C   UNL     1       3.099  -1.275  -0.845  1.00  0.00     0.159 C 
BRANCH   7   8
HETATM    8  C   UNL     1       2.523  -0.099  -0.004  1.00  0.00     0.236 C 
HETATM    9  C   UNL     1       0.985  -0.124  -0.067  1.00  0.00     0.044 C 
BRANCH   8  10
HETATM   10  N   UNL     1       3.060   1.193  -0.493  1.00  0.00     0.094 N 
HETATM   11  C   UNL     1       4.528   1.260  -0.401  1.00  0.00     0.273 C 
HETATM   12  C   UNL     1       4.875   2.726  -0.181  1.00  0.00     0.032 C 
HETATM   13  C   UNL     1       3.543   3.448  -0.190  1.00  0.00     0.032 C 
HETATM   14  C   UNL     1       2.555   2.370   0.217  1.00  0.00     0.273 C 
ENDBRANCH   8  10
ENDBRANCH   7   8
ENDBRANCH   1   7
BRANCH   4  15
HETATM   15  C   UNL     1       1.599  -4.975   0.475  1.00  0.00     0.168 A 
HETATM   16  N   UNL     1       0.921  -4.559  -0.572  1.00  0.00    -0.279 N 
HETATM   17  N   UNL     1      -0.213  -5.311  -0.782  1.00  0.00    -0.303 N 
ATOM     18  HN  UNL     1       1.202  -3.773  -1.159  1.00  0.00     0.189 HD
HETATM   19  C   UNL     1      -0.335  -6.260   0.121  1.00  0.00     0.160 A 
ATOM     20  HN  UNL     1      -0.875  -5.152  -1.542  1.00  0.00     0.186 HD
HETATM   21  S   UNL     1       0.946  -6.332   1.268  1.00  0.00    -0.046 SA
ENDBRANCH   4  15
TORSDOF 4
