REMARK  5 active torsions:
REMARK  status: ('A' for Active; 'I' for Inactive)
REMARK    1  A    between atoms: C_2  and  O_3 
REMARK    2  A    between atoms: O_3  and  C_4 
REMARK    3  A    between atoms: C_4  and  C_6 
REMARK       I    between atoms: C_6  and  N_8 
REMARK    4  A    between atoms: N_8  and  C_9 
REMARK    5  A    between atoms: C_13  and  N_14 
ROOT
HETATM    1  C   UNL     1       6.715   3.273   3.011  1.00  0.00     0.051 A 
HETATM    2  C   UNL     1       7.454   3.265   4.180  1.00  0.00     0.119 A 
HETATM    3  N   UNL     1       7.724   4.368   4.927  1.00  0.00    -0.350 N 
ATOM      4  HN  UNL     1       8.245   4.279   5.799  1.00  0.00     0.166 HD
HETATM    5  C   UNL     1       7.301   5.584   4.512  1.00  0.00     0.109 A 
HETATM    6  C   UNL     1       6.600   5.692   3.299  1.00  0.00    -0.016 A 
HETATM    7  C   UNL     1       6.235   6.990   2.634  1.00  0.00     0.052 C 
HETATM    8  C   UNL     1       6.262   4.515   2.587  1.00  0.00     0.041 A 
ENDROOT
BRANCH   1   9
HETATM    9  N   UNL     1       6.417   2.136   2.225  1.00  0.00    -0.324 N 
HETATM   10  C   UNL     1       6.977   0.884   2.370  1.00  0.00     0.250 C 
HETATM   11  O   UNL     1       7.818   0.579   3.214  1.00  0.00    -0.270 OA
HETATM   12  H   UNL     1       5.832   2.256   1.404  1.00  0.00     0.169 HD
BRANCH  10  13
HETATM   13  C   UNL     1       6.415  -0.169   1.385  1.00  0.00     0.209 C 
HETATM   14  C   UNL     1       7.543  -1.125   0.989  1.00  0.00     0.050 C 
BRANCH  13  15
HETATM   15  O   UNL     1       5.802   0.447   0.243  1.00  0.00    -0.377 OA
BRANCH  15  16
HETATM   16  C   UNL     1       5.162  -0.495  -0.623  1.00  0.00     0.164 C 
HETATM   17  C   UNL     1       4.464   0.256  -1.740  1.00  0.00     0.033 C 
ENDBRANCH  15  16
ENDBRANCH  13  15
ENDBRANCH  10  13
ENDBRANCH   1   9
BRANCH   5  18
HETATM   18  N   UNL     1       7.684   6.674   5.271  1.00  0.00    -0.367 N 
HETATM   19  C   UNL     1       6.746   7.730   5.639  1.00  0.00     0.124 C 
HETATM   20  C   UNL     1       7.519   9.051   5.557  1.00  0.00     0.020 C 
HETATM   21  C   UNL     1       8.753   9.025   6.465  1.00  0.00     0.003 C 
HETATM   22  C   UNL     1       9.597   7.761   6.264  1.00  0.00     0.020 C 
HETATM   23  C   UNL     1       8.742   6.489   6.273  1.00  0.00     0.124 C 
ENDBRANCH   5  18
TORSDOF 5
