REMARK  4 active torsions:
REMARK  status: ('A' for Active; 'I' for Inactive)
REMARK    1  A    between atoms: C_2  and  C_3 
REMARK    2  A    between atoms: C_2  and  N_10 
REMARK    3  A    between atoms: C_3  and  N_4 
REMARK       I    between atoms: N_10  and  C_11 
REMARK       I    between atoms: C_11  and  N_13 
REMARK    4  A    between atoms: N_13  and  C_14 
ROOT
HETATM    1  N   UNL     1       3.171   0.573  -1.418  1.00  0.00    -0.337 N 
HETATM    2  C   UNL     1       4.481   0.995  -1.407  1.00  0.00     0.321 C 
HETATM    3  O   UNL     1       5.205   0.914  -0.425  1.00  0.00    -0.247 OA
HETATM    4  N   UNL     1       4.797   1.604  -2.602  1.00  0.00    -0.308 N 
HETATM    5  H   UNL     1       2.862   0.144  -2.278  1.00  0.00     0.164 HD
HETATM    6  H   UNL     1       3.998   2.027  -3.052  1.00  0.00     0.170 HD
ENDROOT
BRANCH   1   7
HETATM    7  C   UNL     1       2.511   0.136  -0.193  1.00  0.00     0.100 C 
HETATM    8  C   UNL     1       1.000   0.258  -0.368  1.00  0.00     0.034 C 
BRANCH   7   9
HETATM    9  C   UNL     1       2.960  -1.258   0.290  1.00  0.00     0.150 C 
BRANCH   9  10
HETATM   10  N   UNL     1       2.636  -2.363  -0.605  1.00  0.00    -0.350 N 
HETATM   11  C   UNL     1       3.615  -2.962  -1.468  1.00  0.00     0.126 C 
HETATM   12  C   UNL     1       2.952  -4.209  -2.032  1.00  0.00     0.029 C 
HETATM   13  C   UNL     1       1.642  -4.384  -1.276  1.00  0.00     0.104 C 
HETATM   14  C   UNL     1       1.487  -3.125  -0.470  1.00  0.00     0.219 C 
HETATM   15  O   UNL     1       0.517  -2.852   0.220  1.00  0.00    -0.273 OA
ENDBRANCH   9  10
ENDBRANCH   7   9
ENDBRANCH   1   7
BRANCH   4  16
HETATM   16  C   UNL     1       6.049   2.203  -2.839  1.00  0.00     0.051 A 
HETATM   17  C   UNL     1       6.091   3.414  -3.526  1.00  0.00     0.032 A 
HETATM   18  C   UNL     1       7.316   4.047  -3.724  1.00  0.00     0.019 A 
HETATM   19  C   UNL     1       8.464   3.417  -3.270  1.00  0.00     0.088 A 
HETATM   20  N   UNL     1       8.466   2.223  -2.641  1.00  0.00    -0.373 N 
HETATM   21  C   UNL     1       7.256   1.650  -2.421  1.00  0.00     0.117 A 
ATOM     22  HN  UNL     1       9.333   1.774  -2.346  1.00  0.00     0.164 HD
ENDBRANCH   4  16
TORSDOF 4
