REMARK  6 active torsions:
REMARK  status: ('A' for Active; 'I' for Inactive)
REMARK    1  A    between atoms: C_4  and  O_5 
REMARK    2  A    between atoms: O_5  and  C_6 
REMARK    3  A    between atoms: C_6  and  C_7 
REMARK    4  A    between atoms: C_7  and  O_8 
REMARK    5  A    between atoms: C_7  and  C_9 
REMARK    6  A    between atoms: C_9  and  N_10 
ROOT
HETATM    1  C   UNL     1       5.705  -4.565   0.020  1.00  0.00     0.161 C 
ENDROOT
BRANCH   1   2
HETATM    2  C   UNL     1       4.632  -3.465  -0.006  1.00  0.00     0.210 C 
BRANCH   2   3
HETATM    3  O   UNL     1       5.274  -2.179  -0.001  1.00  0.00    -0.332 OA
BRANCH   3   4
HETATM    4  C   UNL     1       4.367  -1.139  -0.035  1.00  0.00     0.157 A 
HETATM    5  C   UNL     1       4.867   0.148  -0.043  1.00  0.00     0.066 A 
HETATM    6  C   UNL     1       3.967   1.219  -0.072  1.00  0.00    -0.034 A 
HETATM    7  C   UNL     1       4.464   2.633  -0.076  1.00  0.00     0.050 C 
HETATM    8  C   UNL     1       2.602   0.917  -0.098  1.00  0.00     0.028 A 
HETATM    9  N   UNL     1       2.157  -0.361  -0.084  1.00  0.00    -0.303 N 
HETATM   10  C   UNL     1       1.546   1.977  -0.140  1.00  0.00     0.070 C 
HETATM   11  N   UNL     1       3.045  -1.393  -0.048  1.00  0.00    -0.280 N 
ATOM     12  HN  UNL     1       1.155  -0.552  -0.100  1.00  0.00     0.186 HD
ATOM     13  HN  UNL     1       2.709  -2.356  -0.031  1.00  0.00     0.189 HD
ENDBRANCH   3   4
ENDBRANCH   2   3
ENDBRANCH   1   2
BRANCH   1  14
HETATM   14  O   UNL     1       6.503  -4.464   1.214  1.00  0.00    -0.392 OA
HETATM   15  H   UNL     1       5.909  -4.343   1.975  1.00  0.00     0.210 HD
ENDBRANCH   1  14
BRANCH   1  16
HETATM   16  C   UNL     1       5.108  -5.977  -0.023  1.00  0.00     0.164 C 
BRANCH  16  17
HETATM   17  N   UNL     1       4.297  -6.275  -1.179  1.00  0.00    -0.339 N 
HETATM   18  C   UNL     1       4.745  -6.291  -2.472  1.00  0.00     0.184 A 
HETATM   19  N   UNL     1       3.793  -6.632  -3.310  1.00  0.00    -0.350 N 
HETATM   20  C   UNL     1       2.691  -6.869  -2.526  1.00  0.00     0.060 A 
ATOM     21  HN  UNL     1       3.858  -6.705  -4.325  1.00  0.00     0.166 HD
HETATM   22  C   UNL     1       1.403  -7.285  -2.896  1.00  0.00     0.039 A 
HETATM   23  C   UNL     1       2.976  -6.651  -1.182  1.00  0.00     0.062 A 
HETATM   24  C   UNL     1       0.416  -7.480  -1.908  1.00  0.00    -0.054 A 
HETATM   25  C   UNL     1      -0.951  -7.933  -2.346  1.00  0.00     0.049 C 
HETATM   26  C   UNL     1       0.725  -7.251  -0.552  1.00  0.00    -0.054 A 
HETATM   27  C   UNL     1      -0.278  -7.437   0.558  1.00  0.00     0.049 C 
HETATM   28  C   UNL     1       2.019  -6.829  -0.176  1.00  0.00     0.039 A 
ENDBRANCH  16  17
ENDBRANCH   1  16
TORSDOF 6
