REMARK  2 active torsions:
REMARK  status: ('A' for Active; 'I' for Inactive)
REMARK       I    between atoms: N_1  and  C_2 
REMARK    1  A    between atoms: C_2  and  C_4 
REMARK    2  A    between atoms: N_9  and  C_10 
ROOT
HETATM    1  C   UNL     1       3.152  -1.049   0.757  1.00  0.00     0.217 C 
HETATM    2  C   UNL     1       4.634  -0.956   0.357  1.00  0.00     0.203 C 
HETATM    3  O   UNL     1       4.875  -1.406  -0.990  1.00  0.00    -0.387 OA
HETATM    4  C   UNL     1       4.439  -2.759  -1.172  1.00  0.00     0.188 C 
HETATM    5  C   UNL     1       2.939  -2.912  -0.883  1.00  0.00     0.168 C 
HETATM    6  N   UNL     1       2.604  -2.403   0.458  1.00  0.00    -0.200 N 
ENDROOT
BRANCH   6   7
HETATM    7  C   UNL     1       2.596  -3.320   1.494  1.00  0.00     0.680 A 
HETATM    8  N   UNL     1       2.893  -2.910   2.738  1.00  0.00    -0.200 N 
HETATM    9  C   UNL     1       2.757  -3.798   3.753  1.00  0.00     0.131 A 
ATOM     10  HN  UNL     1       3.212  -1.957   2.914  1.00  0.00     0.183 HD
HETATM   11  C   UNL     1       2.323  -5.084   3.579  1.00  0.00     0.065 A 
HETATM   12 CL   UNL     1       2.116  -6.170   4.881  1.00  0.00    -0.081 Cl
HETATM   13  C   UNL     1       2.054  -5.426   2.279  1.00  0.00     0.131 A 
HETATM   14  N   UNL     1       2.192  -4.576   1.236  1.00  0.00    -0.200 N 
ATOM     15  HN  UNL     1       1.995  -4.879   0.282  1.00  0.00     0.183 HD
ENDBRANCH   6   7
BRANCH   1  16
HETATM   16  C   UNL     1       2.315   0.031   0.041  1.00  0.00     0.241 C 
HETATM   17  N   UNL     1       0.998  -0.300  -0.148  1.00  0.00    -0.368 N 
HETATM   18  H   UNL     1       0.423   0.326  -0.694  1.00  0.00     0.159 HD
HETATM   19  H   UNL     1       0.734  -1.276  -0.054  1.00  0.00     0.159 HD
HETATM   20  O   UNL     1       2.725   1.144  -0.270  1.00  0.00    -0.271 OA
ENDBRANCH   1  16
TORSDOF 2
