REMARK  4 active torsions:
REMARK  status: ('A' for Active; 'I' for Inactive)
REMARK    1  A    between atoms: C_2  and  C_4 
REMARK    2  A    between atoms: C_4  and  N_5 
REMARK       I    between atoms: N_5  and  C_6 
REMARK       I    between atoms: C_6  and  N_8 
REMARK    3  A    between atoms: N_8  and  C_9 
REMARK    4  A    between atoms: C_12  and  N_16 
ROOT
HETATM    1  C   UNL     1       7.231  -3.374  -2.523  1.00  0.00     0.051 A 
HETATM    2  C   UNL     1       8.123  -2.976  -3.507  1.00  0.00     0.034 A 
HETATM    3  C   UNL     1       8.670  -3.934  -4.363  1.00  0.00     0.044 A 
HETATM    4  C   UNL     1       8.321  -5.280  -4.237  1.00  0.00     0.082 A 
HETATM    5  N   UNL     1       7.472  -5.676  -3.259  1.00  0.00    -0.354 N 
ATOM      6  HN  UNL     1       7.238  -6.661  -3.136  1.00  0.00     0.166 HD
HETATM    7  C   UNL     1       6.941  -4.728  -2.447  1.00  0.00     0.119 A 
ENDROOT
BRANCH   1   8
HETATM    8  N   UNL     1       6.619  -2.459  -1.641  1.00  0.00    -0.308 N 
HETATM    9  C   UNL     1       7.304  -1.405  -1.080  1.00  0.00     0.320 C 
HETATM   10  N   UNL     1       6.482  -0.641  -0.278  1.00  0.00    -0.343 N 
HETATM   11  O   UNL     1       8.499  -1.177  -1.215  1.00  0.00    -0.247 OA
HETATM   12  H   UNL     1       5.588  -0.443  -0.705  1.00  0.00     0.164 HD
HETATM   13  H   UNL     1       5.872  -2.809  -1.055  1.00  0.00     0.170 HD
BRANCH  10  14
HETATM   14  C   UNL     1       7.098   0.416   0.506  1.00  0.00     0.128 C 
BRANCH  14  15
HETATM   15  C   UNL     1       6.113   1.293   1.288  1.00  0.00    -0.005 C 
HETATM   16  C   UNL     1       5.247   2.139   0.352  1.00  0.00     0.011 C 
HETATM   17  C   UNL     1       5.249   0.485   2.253  1.00  0.00     0.011 C 
ENDBRANCH  14  15
ENDBRANCH  10  14
ENDBRANCH   1   8
BRANCH   4  18
HETATM   18  N   UNL     1       8.851  -6.217  -5.122  1.00  0.00    -0.269 NA
HETATM   19  C   UNL     1       8.568  -7.634  -4.859  1.00  0.00     0.097 C 
HETATM   20  C   UNL     1       8.437  -8.268  -6.243  1.00  0.00     0.016 C 
HETATM   21  C   UNL     1       7.921  -7.126  -7.100  1.00  0.00     0.016 C 
HETATM   22  C   UNL     1       8.667  -5.919  -6.547  1.00  0.00     0.097 C 
ENDBRANCH   4  18
TORSDOF 4
