REMARK  8 active torsions:
REMARK  status: ('A' for Active; 'I' for Inactive)
REMARK    1  A    between atoms: N_1  and  C_2 
REMARK    2  A    between atoms: C_10  and  O_12 
REMARK    3  A    between atoms: C_11  and  C_17 
REMARK    4  A    between atoms: O_12  and  C_14 
REMARK    5  A    between atoms: C_14  and  C_23 
REMARK    6  A    between atoms: C_15  and  O_20 
REMARK    7  A    between atoms: C_15  and  C_24 
REMARK    8  A    between atoms: C_17  and  O_20 
ROOT
HETATM    1  C   UNL     1      -1.537  -2.411  -0.227  1.00  0.00     0.249 C 
HETATM    2  C   UNL     1      -2.615  -2.501   0.863  1.00  0.00     0.139 C 
HETATM    3  O   UNL     1      -0.779  -3.633  -0.149  1.00  0.00    -0.355 OA
HETATM    4  C   UNL     1      -2.606  -3.970   1.297  1.00  0.00     0.181 C 
HETATM    5  C   UNL     1      -1.709  -4.660   0.267  1.00  0.00     0.179 C 
HETATM    6 BR   UNL     1      -4.343  -1.896   0.176  1.00  0.00    -0.084 Br
ENDROOT
BRANCH   1   7
HETATM    7  N   UNL     1      -0.674  -1.234  -0.127  1.00  0.00    -0.278 N 
HETATM    8  C   UNL     1      -1.144  -0.061  -0.717  1.00  0.00     0.331 C 
HETATM    9  N   UNL     1      -0.366   1.052  -0.548  1.00  0.00    -0.273 N 
HETATM   10  O   UNL     1      -2.178   0.013  -1.375  1.00  0.00    -0.246 OA
HETATM   11  C   UNL     1       0.903   1.075  -0.034  1.00  0.00     0.289 C 
HETATM   12  H   UNL     1      -0.692   1.897  -0.992  1.00  0.00     0.173 HD
HETATM   13  C   UNL     1       1.346  -0.198   0.566  1.00  0.00     0.199 C 
HETATM   14  O   UNL     1       1.612   2.072  -0.085  1.00  0.00    -0.265 OA
HETATM   15  C   UNL     1       0.555  -1.273   0.512  1.00  0.00     0.146 C 
HETATM   16  F   UNL     1       2.563  -0.224   1.135  1.00  0.00    -0.199 F 
ENDBRANCH   1   7
BRANCH   4  17
HETATM   17  O   UNL     1      -3.886  -4.603   1.420  1.00  0.00    -0.312 OA
BRANCH  17  18
HETATM   18  C   UNL     1      -4.591  -4.276   2.543  1.00  0.00     0.258 C 
HETATM   19  O   UNL     1      -4.156  -3.572   3.446  1.00  0.00    -0.265 OA
BRANCH  18  20
HETATM   20  C   UNL     1      -5.984  -4.850   2.465  1.00  0.00     0.106 C 
HETATM   21  C   UNL     1      -6.785  -4.570   3.726  1.00  0.00     0.015 C 
ENDBRANCH  18  20
ENDBRANCH  17  18
ENDBRANCH   4  17
BRANCH   5  22
HETATM   22  C   UNL     1      -2.457  -5.252  -0.941  1.00  0.00     0.213 C 
BRANCH  22  23
HETATM   23  O   UNL     1      -1.535  -5.879  -1.856  1.00  0.00    -0.319 OA
BRANCH  23  24
HETATM   24  C   UNL     1      -1.135  -7.135  -1.509  1.00  0.00     0.258 C 
HETATM   25  O   UNL     1      -1.499  -7.726  -0.502  1.00  0.00    -0.265 OA
BRANCH  24  26
HETATM   26  C   UNL     1      -0.177  -7.671  -2.544  1.00  0.00     0.106 C 
HETATM   27  C   UNL     1       0.300  -9.072  -2.200  1.00  0.00     0.015 C 
ENDBRANCH  24  26
ENDBRANCH  23  24
ENDBRANCH  22  23
ENDBRANCH   5  22
TORSDOF 8
