REMARK  1 active torsions:
REMARK  status: ('A' for Active; 'I' for Inactive)
REMARK    1  A    between atoms: C_8  and  N_9 
ROOT
HETATM    1  N   UNL     3       0.926  -0.614   1.985  1.00  0.00    -0.279 N 
HETATM    2  C   UNL     3       2.050  -1.131   2.513  1.00  0.00     0.201 A 
HETATM    3  N   UNL     3       2.011  -1.078   3.857  1.00  0.00    -0.346 N 
ATOM      4  HN  UNL     3       2.716  -1.394   4.523  1.00  0.00     0.167 HD
HETATM    5  C   UNL     3       0.817  -0.507   4.113  1.00  0.00     0.198 A 
HETATM    6  N   UNL     3       0.145  -0.222   2.979  1.00  0.00    -0.293 N 
ATOM      7  HN  UNL     3      -0.777   0.208   2.903  1.00  0.00     0.188 HD
ENDROOT
BRANCH   1   8
HETATM    8  C   UNL     3       0.615  -0.506   0.557  1.00  0.00     0.165 C 
HETATM    9  C   UNL     3      -0.054   0.817   0.225  1.00  0.00     0.298 C 
HETATM   10  N   UNL     3      -1.388   0.215   0.277  1.00  0.00     0.087 N 
HETATM   11  C   UNL     3      -0.744  -1.103   0.249  1.00  0.00     0.298 C 
HETATM   12  H   UNL     3      -1.901   0.387  -0.619  1.00  0.00     0.316 HD
ENDBRANCH   1   8
TORSDOF 1
