REMARK  5 active torsions:
REMARK  status: ('A' for Active; 'I' for Inactive)
REMARK    1  A    between atoms: N_4  and  S_9 
REMARK    2  A    between atoms: S_9  and  N_12 
REMARK    3  A    between atoms: N_12  and  C_13 
REMARK    4  A    between atoms: C_13  and  C_14 
REMARK    5  A    between atoms: C_14  and  C_15 
ROOT
HETATM    1  S   UNL     1       3.486   1.577  -3.554  1.00  0.00     0.281 S 
HETATM    2  O   UNL     1       4.881   1.613  -3.196  1.00  0.00    -0.194 OA
HETATM    3  O   UNL     1       3.037   1.143  -4.853  1.00  0.00    -0.194 OA
ENDROOT
BRANCH   1   4
HETATM    4  N   UNL     1       2.658   0.661  -2.395  1.00  0.00    -0.193 NA
HETATM    5  C   UNL     1       3.196  -0.746  -2.380  1.00  0.00     0.140 C 
HETATM    6  C   UNL     1       2.467  -1.624  -1.357  1.00  0.00     0.132 C 
HETATM    7  C   UNL     1       2.836  -1.291   0.086  1.00  0.00     0.041 C 
HETATM    8  O   UNL     1       1.046  -1.604  -1.561  1.00  0.00    -0.379 OA
HETATM    9  C   UNL     1       0.497  -0.277  -1.552  1.00  0.00     0.132 C 
HETATM   10  C   UNL     1       1.171   0.622  -2.604  1.00  0.00     0.140 C 
HETATM   11  C   UNL     1      -0.993  -0.406  -1.847  1.00  0.00     0.041 C 
ENDBRANCH   1   4
BRANCH   1  12
HETATM   12  N   UNL     1       2.859   3.103  -3.221  1.00  0.00    -0.206 NA
HETATM   13  H   UNL     1       3.045   3.278  -2.233  1.00  0.00     0.140 HD
BRANCH  12  14
HETATM   14  C   UNL     1       3.440   4.215  -4.033  1.00  0.00     0.110 C 
BRANCH  14  15
HETATM   15  C   UNL     1       3.160   4.086  -5.532  1.00  0.00     0.055 C 
BRANCH  15  16
HETATM   16  C   UNL     1       3.858   5.149  -6.332  1.00  0.00    -0.042 A 
HETATM   17  C   UNL     1       5.163   4.951  -6.793  1.00  0.00     0.010 A 
HETATM   18  C   UNL     1       5.787   5.944  -7.540  1.00  0.00     0.018 A 
HETATM   19  C   UNL     1       5.083   7.107  -7.795  1.00  0.00     0.087 A 
HETATM   20  N   UNL     1       3.825   7.337  -7.360  1.00  0.00    -0.375 N 
HETATM   21  C   UNL     1       3.239   6.352  -6.643  1.00  0.00     0.094 A 
ATOM     22  HN  UNL     1       3.341   8.211  -7.563  1.00  0.00     0.164 HD
ENDBRANCH  15  16
ENDBRANCH  14  15
ENDBRANCH  12  14
ENDBRANCH   1  12
TORSDOF 5
