REMARK  6 active torsions:
REMARK  status: ('A' for Active; 'I' for Inactive)
REMARK    1  A    between atoms: O_1  and  C_2 
REMARK    2  A    between atoms: C_2  and  C_3 
REMARK    3  A    between atoms: C_2  and  C_14 
REMARK    4  A    between atoms: C_3  and  N_4 
REMARK       I    between atoms: N_4  and  C_5 
REMARK       I    between atoms: C_5  and  N_7 
REMARK    5  A    between atoms: N_7  and  C_8 
REMARK    6  A    between atoms: C_14  and  N_15 
ROOT
HETATM    1  N   UNL     1       1.405   0.433   2.481  1.00  0.00    -0.340 N 
HETATM    2  C   UNL     1       1.843   1.734   2.593  1.00  0.00     0.320 C 
HETATM    3  O   UNL     1       2.902   2.098   2.098  1.00  0.00    -0.247 OA
HETATM    4  N   UNL     1       0.962   2.534   3.279  1.00  0.00    -0.306 N 
HETATM    5  H   UNL     1       0.448   0.205   2.710  1.00  0.00     0.164 HD
HETATM    6  H   UNL     1       0.199   2.109   3.783  1.00  0.00     0.171 HD
ENDROOT
BRANCH   1   7
HETATM    7  C   UNL     1       2.169  -0.529   1.688  1.00  0.00     0.157 C 
BRANCH   7   8
HETATM    8  C   UNL     1       2.099  -0.220   0.178  1.00  0.00     0.164 C 
BRANCH   8   9
HETATM    9  O   UNL     1       0.733  -0.374  -0.234  1.00  0.00    -0.392 OA
HETATM   10  H   UNL     1       0.255   0.377   0.157  1.00  0.00     0.210 HD
ENDBRANCH   8   9
BRANCH   8  11
HETATM   11  C   UNL     1       3.030  -1.152  -0.642  1.00  0.00     0.305 C 
BRANCH  11  12
HETATM   12  N   UNL     1       3.036  -0.934  -2.107  1.00  0.00     0.090 N 
HETATM   13  C   UNL     1       3.903  -1.892  -2.811  1.00  0.00     0.272 C 
HETATM   14  C   UNL     1       5.403  -1.601  -2.680  1.00  0.00     0.030 C 
HETATM   15  C   UNL     1       5.741  -0.156  -3.040  1.00  0.00     0.003 C 
HETATM   16  C   UNL     1       4.812   0.825  -2.333  1.00  0.00     0.030 C 
HETATM   17  C   UNL     1       3.347   0.436  -2.533  1.00  0.00     0.272 C 
ENDBRANCH  11  12
ENDBRANCH   8  11
ENDBRANCH   7   8
ENDBRANCH   1   7
BRANCH   4  18
HETATM   18  C   UNL     1       1.140   3.898   3.424  1.00  0.00     0.070 A 
HETATM   19  C   UNL     1       2.109   4.771   2.880  1.00  0.00     0.138 A 
HETATM   20  N   UNL     1       1.928   6.040   3.261  1.00  0.00    -0.310 N 
HETATM   21  N   UNL     1       0.849   5.978   4.054  1.00  0.00    -0.310 N 
ATOM     22  HN  UNL     1       2.480   6.860   3.008  1.00  0.00     0.186 HD
HETATM   23  C   UNL     1       0.333   4.717   4.177  1.00  0.00     0.138 A 
HETATM   24  H   UNL     1       0.520   6.840   4.477  1.00  0.00     0.186 HD
ENDBRANCH   4  18
TORSDOF 6
