REMARK  3 active torsions:
REMARK  status: ('A' for Active; 'I' for Inactive)
REMARK    1  A    between atoms: C_2  and  N_3 
REMARK    2  A    between atoms: C_2  and  C_15 
REMARK       I    between atoms: N_3  and  C_4 
REMARK       I    between atoms: C_4  and  N_6 
REMARK    3  A    between atoms: N_6  and  C_7 
ROOT
HETATM    1  N   UNL     1       3.064  -0.453  -1.406  1.00  0.00    -0.341 N 
HETATM    2  C   UNL     1       2.644  -1.588  -2.052  1.00  0.00     0.300 C 
HETATM    3  O   UNL     1       1.845  -2.368  -1.544  1.00  0.00    -0.254 OA
HETATM    4  N   UNL     1       3.256  -1.749  -3.275  1.00  0.00    -0.196 NA
HETATM    5  H   UNL     1       3.376   0.317  -1.988  1.00  0.00     0.164 HD
HETATM    6  H   UNL     1       4.255  -1.614  -3.215  1.00  0.00     0.139 HD
ENDROOT
BRANCH   1   7
HETATM    7  C   UNL     1       2.491  -0.094  -0.104  1.00  0.00     0.110 C 
HETATM    8  C   UNL     1       1.166   0.649  -0.303  1.00  0.00     0.035 C 
BRANCH   7   9
HETATM    9  C   UNL     1       3.525   0.686   0.726  1.00  0.00     0.143 C 
HETATM   10  C   UNL     1       3.129   0.947   2.174  1.00  0.00     0.036 C 
HETATM   11  C   UNL     1       3.655   2.336   2.469  1.00  0.00     0.029 C 
HETATM   12  C   UNL     1       4.386   2.747   1.209  1.00  0.00     0.168 C 
HETATM   13  O   UNL     1       3.797   1.979   0.155  1.00  0.00    -0.384 OA
ENDBRANCH   7   9
ENDBRANCH   1   7
BRANCH   4  14
HETATM   14  C   UNL     1       2.946  -2.878  -4.051  1.00  0.00     0.094 A 
HETATM   15  N   UNL     1       4.014  -3.649  -4.359  1.00  0.00    -0.356 N 
HETATM   16  C   UNL     1       3.762  -4.827  -4.971  1.00  0.00     0.089 A 
ATOM     17  HN  UNL     1       4.966  -3.355  -4.139  1.00  0.00     0.166 HD
HETATM   18  C   UNL     1       2.496  -5.260  -5.320  1.00  0.00     0.018 A 
HETATM   19  C   UNL     1       1.425  -4.410  -5.077  1.00  0.00     0.011 A 
HETATM   20  C   UNL     1       1.639  -3.175  -4.456  1.00  0.00    -0.023 A 
HETATM   21  C   UNL     1       0.502  -2.202  -4.332  1.00  0.00     0.052 C 
ENDBRANCH   4  14
TORSDOF 3
