REMARK  5 active torsions:
REMARK  status: ('A' for Active; 'I' for Inactive)
REMARK    1  A    between atoms: C_5  and  C_6 
REMARK    2  A    between atoms: C_6  and  C_7 
REMARK    3  A    between atoms: C_7  and  N_8 
REMARK       I    between atoms: N_8  and  C_9 
REMARK       I    between atoms: C_9  and  N_11 
REMARK    4  A    between atoms: N_11  and  C_12 
REMARK    5  A    between atoms: C_16  and  C_18 
ROOT
HETATM    1  N   UNL     1       8.782  -1.515  -1.159  1.00  0.00    -0.343 N 
HETATM    2  C   UNL     1       9.420  -2.739  -1.161  1.00  0.00     0.316 C 
HETATM    3  O   UNL     1       8.907  -3.765  -0.745  1.00  0.00    -0.247 OA
HETATM    4  N   UNL     1      10.667  -2.645  -1.711  1.00  0.00    -0.339 N 
HETATM    5  H   UNL     1       9.389  -0.721  -1.029  1.00  0.00     0.164 HD
HETATM    6  H   UNL     1      10.923  -1.733  -2.055  1.00  0.00     0.164 HD
ENDROOT
BRANCH   1   7
HETATM    7  C   UNL     1       7.445  -1.421  -0.593  1.00  0.00     0.129 C 
BRANCH   7   8
HETATM    8  C   UNL     1       6.843  -0.018  -0.716  1.00  0.00     0.060 C 
BRANCH   8   9
HETATM    9  C   UNL     1       5.451   0.035  -0.144  1.00  0.00    -0.041 A 
HETATM   10  C   UNL     1       4.329  -0.216  -0.933  1.00  0.00     0.010 A 
HETATM   11  C   UNL     1       3.064  -0.246  -0.352  1.00  0.00     0.025 A 
HETATM   12  C   UNL     1       2.946  -0.021   1.015  1.00  0.00     0.005 A 
HETATM   13  C   UNL     1       1.617  -0.122   1.703  1.00  0.00     0.068 C 
HETATM   14  N   UNL     1       4.016   0.247   1.799  1.00  0.00    -0.369 N 
HETATM   15  C   UNL     1       5.233   0.269   1.209  1.00  0.00     0.095 A 
ATOM     16  HN  UNL     1       3.909   0.426   2.797  1.00  0.00     0.165 HD
ENDBRANCH   8   9
ENDBRANCH   7   8
ENDBRANCH   1   7
BRANCH   4  17
HETATM   17  C   UNL     1      11.692  -3.683  -1.839  1.00  0.00     0.086 C 
HETATM   18  C   UNL     1      11.226  -5.137  -2.031  1.00  0.00     0.025 C 
HETATM   19  C   UNL     1      11.065  -5.970  -0.756  1.00  0.00     0.003 C 
HETATM   20  C   UNL     1      12.170  -5.741   0.271  1.00  0.00     0.014 C 
HETATM   21  C   UNL     1      12.352  -4.248   0.561  1.00  0.00     0.095 C 
HETATM   22  C   UNL     1      12.743  -3.533  -0.737  1.00  0.00     0.038 C 
BRANCH  21  23
HETATM   23  C   UNL     1      13.371  -3.987   1.668  1.00  0.00     0.391 C 
HETATM   24  F   UNL     1      13.851  -5.125   2.212  1.00  0.00    -0.171 F 
HETATM   25  F   UNL     1      14.433  -3.274   1.229  1.00  0.00    -0.171 F 
HETATM   26  F   UNL     1      12.804  -3.271   2.668  1.00  0.00    -0.171 F 
ENDBRANCH  21  23
ENDBRANCH   4  17
TORSDOF 5
