REMARK  6 active torsions:
REMARK  status: ('A' for Active; 'I' for Inactive)
REMARK    1  A    between atoms: C_2  and  C_4 
REMARK    2  A    between atoms: C_4  and  C_5 
REMARK    3  A    between atoms: C_5  and  C_6 
REMARK       I    between atoms: C_6  and  N_8 
REMARK    4  A    between atoms: N_8  and  C_9 
REMARK    5  A    between atoms: C_9  and  C_10 
REMARK    6  A    between atoms: C_16  and  N_17 
ROOT
HETATM    1  C   UNL     1       8.439   2.683  -3.469  1.00  0.00     0.004 A 
HETATM    2  C   UNL     1       8.853   1.613  -4.294  1.00  0.00     0.014 A 
HETATM    3  C   UNL     1      10.193   1.394  -4.553  1.00  0.00     0.018 A 
HETATM    4  C   UNL     1      11.089   2.263  -3.977  1.00  0.00     0.089 A 
HETATM    5  N   UNL     1      10.728   3.267  -3.148  1.00  0.00    -0.352 N 
ATOM      6  HN  UNL     1      11.444   3.870  -2.742  1.00  0.00     0.166 HD
HETATM    7  C   UNL     1       9.419   3.480  -2.851  1.00  0.00     0.111 A 
ENDROOT
BRANCH   1   8
HETATM    8  C   UNL     1       6.954   2.907  -3.389  1.00  0.00     0.165 C 
BRANCH   8   9
HETATM    9  N   UNL     1       6.326   2.089  -2.376  1.00  0.00    -0.357 N 
HETATM   10  C   UNL     1       5.008   2.278  -2.036  1.00  0.00     0.217 C 
HETATM   11  O   UNL     1       4.287   3.108  -2.584  1.00  0.00    -0.274 OA
HETATM   12  H   UNL     1       6.884   1.394  -1.895  1.00  0.00     0.162 HD
BRANCH  10  13
HETATM   13  C   UNL     1       4.529   1.431  -0.880  1.00  0.00     0.103 C 
BRANCH  13  14
HETATM   14  C   UNL     1       4.544   2.247   0.414  1.00  0.00     0.013 C 
BRANCH  14  15
HETATM   15  C   UNL     1       4.097   1.451   1.655  1.00  0.00    -0.022 C 
HETATM   16  C   UNL     1       4.168   2.341   2.899  1.00  0.00     0.009 C 
HETATM   17  C   UNL     1       2.684   0.883   1.513  1.00  0.00     0.009 C 
ENDBRANCH  14  15
ENDBRANCH  13  14
ENDBRANCH  10  13
ENDBRANCH   8   9
ENDBRANCH   1   8
BRANCH   7  18
HETATM   18  N   UNL     1       9.199   4.454  -1.901  1.00  0.00    -0.363 N 
HETATM   19  C   UNL     1      10.096   5.627  -1.883  1.00  0.00     0.150 C 
HETATM   20  C   UNL     1      10.317   6.125  -0.444  1.00  0.00     0.187 C 
HETATM   21  O   UNL     1       9.076   6.359   0.241  1.00  0.00    -0.388 OA
HETATM   22  C   UNL     1       8.332   5.138   0.309  1.00  0.00     0.187 C 
HETATM   23  C   UNL     1       7.992   4.604  -1.089  1.00  0.00     0.150 C 
ENDBRANCH   7  18
TORSDOF 6
