REMARK  3 active torsions:
REMARK  status: ('A' for Active; 'I' for Inactive)
REMARK    1  A    between atoms: C_5  and  C_6 
REMARK    2  A    between atoms: C_6  and  C_7 
REMARK       I    between atoms: C_7  and  N_9 
REMARK    3  A    between atoms: N_9  and  C_10 
ROOT
HETATM    1  C   UNL     1       7.206   0.763   0.299  1.00  0.00     0.223 C 
HETATM    2  O   UNL     1       7.290  -0.412   0.650  1.00  0.00    -0.273 OA
HETATM    3  N   UNL     1       8.290   1.514  -0.116  1.00  0.00    -0.356 N 
HETATM    4  H   UNL     1       8.154   2.522  -0.130  1.00  0.00     0.162 HD
ENDROOT
BRANCH   1   5
HETATM    5  C   UNL     1       5.876   1.484   0.239  1.00  0.00     0.160 C 
BRANCH   5   6
HETATM    6  C   UNL     1       5.801   2.581   1.246  1.00  0.00     0.025 A 
HETATM    7  N   UNL     1       6.245   3.848   0.888  1.00  0.00    -0.357 N 
HETATM    8  C   UNL     1       6.046   4.691   1.879  1.00  0.00     0.047 A 
ATOM      9  HN  UNL     1       6.663   4.089  -0.010  1.00  0.00     0.166 HD
HETATM   10  C   UNL     1       6.358   6.144   1.828  1.00  0.00     0.076 C 
HETATM   11  S   UNL     1       5.372   4.011   3.305  1.00  0.00    -0.087 SA
HETATM   12  C   UNL     1       5.306   2.485   2.533  1.00  0.00     0.077 A 
ENDBRANCH   5   6
ENDBRANCH   1   5
BRANCH   3  13
HETATM   13  C   UNL     1       9.649   0.995  -0.017  1.00  0.00     0.084 C 
HETATM   14  C   UNL     1      10.202   1.163   1.405  1.00  0.00     0.025 C 
HETATM   15  C   UNL     1      10.524   2.621   1.729  1.00  0.00     0.002 C 
HETATM   16  C   UNL     1      11.496   3.209   0.712  1.00  0.00     0.000 C 
HETATM   17  C   UNL     1      10.967   3.079  -0.713  1.00  0.00     0.002 C 
HETATM   18  C   UNL     1      10.575   1.642  -1.055  1.00  0.00     0.025 C 
ENDBRANCH   3  13
TORSDOF 3
