REMARK  6 active torsions:
REMARK  status: ('A' for Active; 'I' for Inactive)
REMARK    1  A    between atoms: O_2  and  C_3 
REMARK    2  A    between atoms: C_6  and  N_7 
REMARK       I    between atoms: N_7  and  C_8 
REMARK    3  A    between atoms: C_8  and  C_10 
REMARK    4  A    between atoms: C_10  and  O_12 
REMARK    5  A    between atoms: O_12  and  C_13 
REMARK    6  A    between atoms: C_13  and  C_14 
ROOT
HETATM    1  N   UNL     1       4.273  -5.445  -2.340  1.00  0.00    -0.324 N 
HETATM    2  C   UNL     1       4.068  -4.950  -3.617  1.00  0.00     0.250 C 
HETATM    3  O   UNL     1       3.624  -3.845  -3.911  1.00  0.00    -0.270 OA
HETATM    4  H   UNL     1       4.766  -6.333  -2.286  1.00  0.00     0.169 HD
ENDROOT
BRANCH   2   5
HETATM    5  C   UNL     1       4.495  -5.943  -4.710  1.00  0.00     0.209 C 
HETATM    6  C   UNL     1       5.960  -5.716  -5.052  1.00  0.00     0.050 C 
BRANCH   5   7
HETATM    7  O   UNL     1       4.344  -7.305  -4.302  1.00  0.00    -0.374 OA
BRANCH   7   8
HETATM    8  C   UNL     1       2.969  -7.686  -4.166  1.00  0.00     0.200 C 
BRANCH   8   9
HETATM    9  C   UNL     1       2.888  -9.176  -3.800  1.00  0.00     0.145 C 
HETATM   10  C   UNL     1       3.420 -10.091  -4.905  1.00  0.00     0.034 C 
HETATM   11  C   UNL     1       2.475 -10.118  -6.102  1.00  0.00     0.005 C 
HETATM   12  C   UNL     1       1.053 -10.432  -5.650  1.00  0.00     0.026 C 
HETATM   13  C   UNL     1       0.616  -9.548  -4.489  1.00  0.00     0.168 C 
HETATM   14  O   UNL     1       1.563  -9.566  -3.423  1.00  0.00    -0.384 OA
ENDBRANCH   8   9
ENDBRANCH   7   8
ENDBRANCH   5   7
ENDBRANCH   2   5
BRANCH   1  15
HETATM   15  C   UNL     1       3.796  -4.886  -1.141  1.00  0.00     0.050 A 
HETATM   16  C   UNL     1       2.900  -3.821  -1.093  1.00  0.00     0.035 A 
HETATM   17  C   UNL     1       2.468  -3.336   0.138  1.00  0.00     0.058 A 
HETATM   18  C   UNL     1       2.945  -3.936   1.289  1.00  0.00     0.141 A 
HETATM   19  N   UNL     1       3.799  -4.982   1.291  1.00  0.00    -0.345 N 
HETATM   20  C   UNL     1       4.196  -5.432   0.078  1.00  0.00     0.119 A 
ATOM     21  HN  UNL     1       4.126  -5.409   2.158  1.00  0.00     0.167 HD
BRANCH  18  22
HETATM   22  O   UNL     1       2.494  -3.403   2.480  1.00  0.00    -0.341 OA
HETATM   23  C   UNL     1       3.007  -4.082   3.619  1.00  0.00     0.211 C 
ENDBRANCH  18  22
ENDBRANCH   1  15
TORSDOF 6
