REMARK  5 active torsions:
REMARK  status: ('A' for Active; 'I' for Inactive)
REMARK    1  A    between atoms: C_2  and  C_5 
REMARK    2  A    between atoms: C_5  and  C_6 
REMARK    3  A    between atoms: C_5  and  N_14 
REMARK    4  A    between atoms: C_6  and  C_7 
REMARK    5  A    between atoms: N_14  and  C_15 
ROOT
HETATM    1  C   UNL     1       2.567   1.344  -0.662  1.00  0.00     0.331 C 
ENDROOT
BRANCH   1   2
HETATM    2  C   UNL     1       2.012   0.013  -0.030  1.00  0.00     0.418 C 
HETATM    3  F   UNL     1       0.989   0.170   0.829  1.00  0.00    -0.169 F 
HETATM    4  F   UNL     1       2.992  -0.671   0.618  1.00  0.00    -0.169 F 
HETATM    5  F   UNL     1       1.579  -0.812  -1.017  1.00  0.00    -0.169 F 
ENDBRANCH   1   2
BRANCH   1   6
HETATM    6  C   UNL     1       1.815   2.599  -0.153  1.00  0.00     0.083 C 
BRANCH   6   7
HETATM    7  C   UNL     1       2.105   3.004   1.272  1.00  0.00    -0.053 A 
HETATM    8  C   UNL     1       3.188   3.834   1.584  1.00  0.00     0.024 A 
HETATM    9  C   UNL     1       3.497   4.069   2.917  1.00  0.00     0.088 A 
HETATM   10  N   UNL     1       2.788   3.567   3.946  1.00  0.00    -0.375 N 
HETATM   11  C   UNL     1       1.717   2.807   3.633  1.00  0.00     0.088 A 
ATOM     12  HN  UNL     1       3.048   3.752   4.915  1.00  0.00     0.164 HD
HETATM   13  C   UNL     1       1.335   2.514   2.330  1.00  0.00     0.024 A 
ENDBRANCH   6   7
ENDBRANCH   1   6
BRANCH   1  14
HETATM   14  N   UNL     1       4.031   1.404  -0.488  1.00  0.00     0.102 N 
HETATM   15  H   UNL     1       4.362   0.455  -0.606  1.00  0.00     0.317 HD
BRANCH  14  16
HETATM   16  C   UNL     1       4.887   2.351  -1.175  1.00  0.00     0.226 C 
HETATM   17  C   UNL     1       4.889   2.310  -2.702  1.00  0.00     0.062 C 
HETATM   18  C   UNL     1       5.547   1.049  -3.235  1.00  0.00     0.171 C 
HETATM   19  O   UNL     1       6.855   0.826  -2.705  1.00  0.00    -0.379 OA
HETATM   20  C   UNL     1       6.966   0.797  -1.267  1.00  0.00     0.072 C 
HETATM   21  C   UNL     1       6.373  -0.518  -0.696  1.00  0.00     0.049 C 
HETATM   22  C   UNL     1       8.478   0.788  -0.916  1.00  0.00     0.111 C 
HETATM   23  C   UNL     1       6.327   2.091  -0.693  1.00  0.00     0.074 C 
HETATM   24  C   UNL     1       7.420  -1.605  -0.626  1.00  0.00     0.077 C 
HETATM   25  S   UNL     1       8.850  -0.732   0.003  1.00  0.00    -0.166 SA
ENDBRANCH  14  16
ENDBRANCH   1  14
TORSDOF 5
