REMARK  4 active torsions:
REMARK  status: ('A' for Active; 'I' for Inactive)
REMARK    1  A    between atoms: N1_1  and  C1*_4 
REMARK    2  A    between atoms: C4*_10  and  C5*_16 
REMARK    3  A    between atoms: C3*_11  and  O3*_15 
REMARK    4  A    between atoms: C5*_16  and  O5*_17 
ROOT
ATOM      1  N1    T A   1      -0.578  -1.279  -0.008  1.00  0.00    -0.282 N 
ATOM      2  C2    T A   1      -0.202  -0.652  -1.187  1.00  0.00     0.331 A 
ATOM      3  N3    T A   1       0.540   0.486  -1.047  1.00  0.00    -0.275 N 
ATOM      4  C6    T A   1      -0.148  -0.821   1.223  1.00  0.00     0.110 A 
ATOM      5  C5    T A   1       0.633   0.260   1.352  1.00  0.00     0.022 A 
ATOM      6  C4    T A   1       1.029   0.987   0.123  1.00  0.00     0.256 A 
ATOM      7  O2    T A   1      -0.486  -1.060  -2.310  1.00  0.00    -0.246 OA
ATOM      8  O4    T A   1       1.762   1.968   0.154  1.00  0.00    -0.267 OA
ATOM      9  C5M   T A   1       1.158   0.786   2.648  1.00  0.00     0.056 C 
ATOM     10  H3    T A   1       0.819   0.950  -1.897  1.00  0.00     0.173 HD
ENDROOT
BRANCH   1  11
ATOM     11  C1*   T A   1      -1.347  -2.508  -0.136  1.00  0.00     0.235 C 
ATOM     12  O4*   T A   1      -2.290  -2.650   0.945  1.00  0.00    -0.356 OA
ATOM     13  C4*   T A   1      -2.426  -4.069   1.219  1.00  0.00     0.176 C 
ATOM     14  C3*   T A   1      -1.532  -4.810   0.210  1.00  0.00     0.153 C 
ATOM     15  C2*   T A   1      -0.493  -3.766  -0.121  1.00  0.00     0.088 C 
BRANCH  13  16
ATOM     16  C5*   T A   1      -3.907  -4.434   1.170  1.00  0.00     0.198 C 
BRANCH  16  17
ATOM     17  O5*   T A   1      -4.445  -4.096  -0.113  1.00  0.00    -0.398 OA
ATOM     18  H5*   T A   1      -4.440  -3.118  -0.152  1.00  0.00     0.209 HD
ENDBRANCH  16  17
ENDBRANCH  13  16
BRANCH  14  19
ATOM     19  O3*   T A   1      -2.167  -5.200  -1.004  1.00  0.00    -0.393 OA
ATOM     20  H3*   T A   1      -3.061  -4.798  -1.049  1.00  0.00     0.210 HD
ENDBRANCH  14  19
ENDBRANCH   1  11
TORSDOF 4
