REMARK  5 active torsions:
REMARK  status: ('A' for Active; 'I' for Inactive)
REMARK    1  A    between atoms: C_2  and  C_3 
REMARK    2  A    between atoms: C_2  and  S_20 
REMARK       I    between atoms: C_3  and  N_5 
REMARK    3  A    between atoms: N_5  and  C_6 
REMARK    4  A    between atoms: C_6  and  C_7 
REMARK    5  A    between atoms: C_12  and  N_14 
ROOT
HETATM    1  C   UNL     1       2.776   0.320  -5.018  1.00  0.00    -0.036 A 
HETATM    2  C   UNL     1       2.809  -1.063  -5.145  1.00  0.00     0.026 A 
HETATM    3  C   UNL     1       2.551  -1.604  -6.392  1.00  0.00     0.090 A 
HETATM    4  N   UNL     1       2.274  -0.871  -7.497  1.00  0.00    -0.352 N 
ATOM      5  HN  UNL     1       2.098  -1.328  -8.392  1.00  0.00     0.166 HD
HETATM    6  C   UNL     1       2.235   0.474  -7.393  1.00  0.00     0.103 A 
HETATM    7  C   UNL     1       2.457   1.080  -6.153  1.00  0.00     0.057 A 
ENDROOT
BRANCH   1   8
HETATM    8  C   UNL     1       3.088   1.005  -3.717  1.00  0.00     0.161 C 
BRANCH   8   9
HETATM    9  N   UNL     1       1.922   1.171  -2.877  1.00  0.00    -0.356 N 
HETATM   10  C   UNL     1       1.258   2.376  -2.785  1.00  0.00     0.236 C 
HETATM   11  O   UNL     1       1.515   3.338  -3.505  1.00  0.00    -0.272 OA
HETATM   12  H   UNL     1       1.762   0.459  -2.175  1.00  0.00     0.162 HD
BRANCH  10  13
HETATM   13  C   UNL     1       0.203   2.446  -1.703  1.00  0.00     0.195 C 
HETATM   14  C   UNL     1      -0.996   3.279  -2.133  1.00  0.00     0.036 C 
BRANCH  13  15
HETATM   15  S   UNL     1       0.975   3.102  -0.228  1.00  0.00     0.153 S 
HETATM   16  O   UNL     1      -0.041   3.154   0.808  1.00  0.00    -0.227 OA
HETATM   17  O   UNL     1       2.192   2.344   0.013  1.00  0.00    -0.227 OA
HETATM   18  C   UNL     1       1.437   4.782  -0.601  1.00  0.00     0.162 C 
ENDBRANCH  13  15
ENDBRANCH  10  13
ENDBRANCH   8   9
ENDBRANCH   1   8
BRANCH   6  19
HETATM   19  N   UNL     1       1.943   1.227  -8.511  1.00  0.00    -0.363 N 
HETATM   20  C   UNL     1       1.388   0.585  -9.711  1.00  0.00     0.150 C 
HETATM   21  C   UNL     1       2.356   0.692 -10.898  1.00  0.00     0.187 C 
HETATM   22  O   UNL     1       2.766   2.051 -11.128  1.00  0.00    -0.388 OA
HETATM   23  C   UNL     1       3.437   2.558  -9.965  1.00  0.00     0.187 C 
HETATM   24  C   UNL     1       2.520   2.559  -8.732  1.00  0.00     0.150 C 
ENDBRANCH   6  19
TORSDOF 5
