REMARK  6 active torsions:
REMARK  status: ('A' for Active; 'I' for Inactive)
REMARK    1  A    between atoms: O_1  and  C_2 
REMARK    2  A    between atoms: C_2  and  C_3 
REMARK    3  A    between atoms: C_2  and  C_19 
REMARK    4  A    between atoms: C_3  and  N_4 
REMARK    5  A    between atoms: C_7  and  C_16 
REMARK    6  A    between atoms: C_9  and  C_12 
ROOT
HETATM    1  N   UNL     1       2.438  -0.806  -2.292  1.00  0.00    -0.254 N 
HETATM    2  N   UNL     1       1.742  -0.502  -3.449  1.00  0.00    -0.299 N 
ATOM      3  HN  UNL     1       1.433   0.448  -3.652  1.00  0.00     0.187 HD
HETATM    4  C   UNL     1       1.503  -1.479  -4.259  1.00  0.00     0.031 A 
HETATM    5  C   UNL     1       1.872  -2.879  -4.037  1.00  0.00     0.049 A 
HETATM    6  C   UNL     1       2.558  -3.163  -2.922  1.00  0.00     0.119 A 
HETATM    7  C   UNL     1       2.927  -2.080  -1.987  1.00  0.00     0.277 A 
HETATM    8  O   UNL     1       3.623  -2.307  -1.005  1.00  0.00    -0.266 OA
ENDROOT
BRANCH   1   9
HETATM    9  C   UNL     1       2.791   0.333  -1.426  1.00  0.00     0.189 C 
BRANCH   9  10
HETATM   10  C   UNL     1       1.553   1.069  -0.877  1.00  0.00     0.174 C 
BRANCH  10  11
HETATM   11  O   UNL     1       0.770   1.604  -1.955  1.00  0.00    -0.389 OA
HETATM   12  H   UNL     1       0.829   0.927  -2.664  1.00  0.00     0.210 HD
ENDBRANCH  10  11
BRANCH  10  13
HETATM   13  C   UNL     1       1.962   2.197   0.042  1.00  0.00     0.011 A 
HETATM   14  C   UNL     1       2.228   3.489  -0.440  1.00  0.00     0.013 A 
HETATM   15  C   UNL     1       2.642   4.504   0.430  1.00  0.00     0.001 A 
HETATM   16  C   UNL     1       2.803   4.240   1.789  1.00  0.00     0.003 A 
HETATM   17  C   UNL     1       2.551   2.960   2.280  1.00  0.00     0.043 A 
HETATM   18  C   UNL     1       2.137   1.955   1.407  1.00  0.00     0.125 A 
HETATM   19  F   UNL     1       1.920   0.726   1.897  1.00  0.00    -0.205 F 
ENDBRANCH  10  13
ENDBRANCH   9  10
ENDBRANCH   1   9
BRANCH   4  20
HETATM   20  C   UNL     1       0.752  -1.199  -5.505  1.00  0.00     0.037 A 
HETATM   21  C   UNL     1       1.397  -1.434  -6.854  1.00  0.00     0.011 A 
HETATM   22  C   UNL     1       1.123  -0.034  -6.394  1.00  0.00     0.011 A 
ENDBRANCH   4  20
BRANCH   6  23
HETATM   23  C   UNL     1       2.961  -4.550  -2.586  1.00  0.00     0.422 C 
HETATM   24  F   UNL     1       3.578  -4.742  -1.399  1.00  0.00    -0.166 F 
HETATM   25  F   UNL     1       1.871  -5.369  -2.581  1.00  0.00    -0.166 F 
HETATM   26  F   UNL     1       3.791  -5.053  -3.541  1.00  0.00    -0.166 F 
ENDBRANCH   6  23
TORSDOF 6
