REMARK  7 active torsions:
REMARK  status: ('A' for Active; 'I' for Inactive)
REMARK    1  A    between atoms: O_1  and  C_2 
REMARK    2  A    between atoms: C_2  and  CA_4 
REMARK    3  A    between atoms: CA_4  and  C_5 
REMARK    4  A    between atoms: CA_4  and  N_16 
REMARK    5  A    between atoms: C_5  and  N_6 
REMARK    6  A    between atoms: C_9  and  C_12 
REMARK    7  A    between atoms: N_16  and  C_17 
ROOT
HETATM    1  C   UNL     1       2.790  -1.364   1.934  1.00  0.00     0.195 C 
ENDROOT
BRANCH   1   2
HETATM    2  CA  UNL     1       3.274  -0.103   1.211  1.00  0.00     0.337 C 
BRANCH   2   3
HETATM    3  C   UNL     1       2.536   0.040  -0.126  1.00  0.00     0.176 C 
HETATM    4  OXT UNL     1       1.405   0.497  -0.218  1.00  0.00    -0.648 OA
BRANCH   3   5
HETATM    5  O   UNL     1       3.235  -0.360  -1.215  1.00  0.00    -0.775 OA
HETATM    6  H   UNL     1       4.105  -0.727  -0.975  1.00  0.00     0.167 HD
ENDBRANCH   3   5
ENDBRANCH   2   3
BRANCH   2   7
HETATM    7  N   UNL     1       4.752  -0.033   1.080  1.00  0.00     0.104 N 
HETATM    8  H   UNL     1       5.181  -0.868   0.688  1.00  0.00     0.317 HD
BRANCH   7   9
HETATM    9  C   UNL     1       5.268   1.226   0.543  1.00  0.00     0.222 A 
HETATM   10  C   UNL     1       6.749   1.364   0.333  1.00  0.00     0.037 A 
HETATM   11  C   UNL     1       6.075   2.117   1.442  1.00  0.00     0.037 A 
ENDBRANCH   7   9
ENDBRANCH   2   7
ENDBRANCH   1   2
BRANCH   1  12
HETATM   12  N   UNL     1       3.149  -2.592   1.249  1.00  0.00    -0.300 N 
HETATM   13  C   UNL     1       4.288  -3.324   1.413  1.00  0.00     0.112 A 
HETATM   14  C   UNL     1       4.228  -4.333   0.481  1.00  0.00     0.054 A 
HETATM   15  C   UNL     1       2.997  -4.147  -0.203  1.00  0.00     0.133 A 
HETATM   16  N   UNL     1       2.358  -3.060   0.273  1.00  0.00    -0.295 N 
ATOM     17  HN  UNL     1       1.466  -2.677  -0.041  1.00  0.00     0.187 HD
BRANCH  15  18
HETATM   18  C   UNL     1       2.441  -5.000  -1.314  1.00  0.00     0.433 C 
HETATM   19  F   UNL     1       3.294  -6.012  -1.641  1.00  0.00    -0.165 F 
HETATM   20  F   UNL     1       1.260  -5.587  -0.985  1.00  0.00    -0.165 F 
HETATM   21  F   UNL     1       2.235  -4.296  -2.460  1.00  0.00    -0.165 F 
ENDBRANCH  15  18
ENDBRANCH   1  12
TORSDOF 7
