REMARK  7 active torsions:
REMARK  status: ('A' for Active; 'I' for Inactive)
REMARK    1  A    between atoms: C_2  and  N_3 
REMARK    2  A    between atoms: C_2  and  C_14 
REMARK    3  A    between atoms: N_3  and  C_4 
REMARK    4  A    between atoms: C_4  and  C_5 
REMARK    5  A    between atoms: C_5  and  C_6 
REMARK       I    between atoms: C_6  and  N_8 
REMARK    6  A    between atoms: N_8  and  C_9 
REMARK    7  A    between atoms: C_14  and  N_16 
ROOT
HETATM    1  N   UNL     1       2.924   1.510   0.332  1.00  0.00     0.090 N 
HETATM    2  H   UNL     1       3.944   1.496   0.362  1.00  0.00     0.316 HD
ENDROOT
BRANCH   1   3
HETATM    3  C   UNL     1       2.428   0.147  -0.001  1.00  0.00     0.240 C 
HETATM    4  C   UNL     1       3.026  -0.311  -1.342  1.00  0.00     0.045 C 
BRANCH   3   5
HETATM    5  C   UNL     1       0.875  -0.023   0.041  1.00  0.00     0.136 C 
HETATM    6  C   UNL     1       0.412  -1.457  -0.245  1.00  0.00     0.036 C 
BRANCH   5   7
HETATM    7  N   UNL     1       0.308   0.441   1.309  1.00  0.00    -0.297 N 
HETATM    8  C   UNL     1      -0.554   1.491   1.472  1.00  0.00     0.118 A 
HETATM    9  C   UNL     1      -0.783   1.603   2.826  1.00  0.00    -0.028 A 
HETATM   10  C   UNL     1      -1.599   2.612   3.535  1.00  0.00     0.051 C 
HETATM   11  C   UNL     1      -0.052   0.530   3.385  1.00  0.00     0.115 A 
HETATM   12  N   UNL     1       0.581  -0.200   2.465  1.00  0.00    -0.309 N 
ATOM     13  HN  UNL     1       1.139  -1.043   2.603  1.00  0.00     0.186 HD
ENDBRANCH   5   7
ENDBRANCH   3   5
ENDBRANCH   1   3
BRANCH   1  14
HETATM   14  C   UNL     1       2.463   2.555  -0.582  1.00  0.00     0.279 C 
BRANCH  14  15
HETATM   15  C   UNL     1       2.921   3.943  -0.143  1.00  0.00     0.132 C 
BRANCH  15  16
HETATM   16  C   UNL     1       2.416   4.963  -1.147  1.00  0.00     0.219 C 
HETATM   17  O   UNL     1       1.702   4.665  -2.101  1.00  0.00    -0.274 OA
HETATM   18  N   UNL     1       2.846   6.244  -0.908  1.00  0.00    -0.356 N 
HETATM   19  H   UNL     1       3.240   6.464  -0.001  1.00  0.00     0.162 HD
BRANCH  18  20
HETATM   20  C   UNL     1       2.424   7.325  -1.771  1.00  0.00     0.084 C 
HETATM   21  C   UNL     1       3.407   8.493  -1.790  1.00  0.00     0.025 C 
HETATM   22  C   UNL     1       2.559   9.744  -2.028  1.00  0.00     0.002 C 
HETATM   23  C   UNL     1       1.110   9.273  -2.096  1.00  0.00     0.002 C 
HETATM   24  C   UNL     1       1.104   7.955  -1.340  1.00  0.00     0.025 C 
ENDBRANCH  18  20
ENDBRANCH  15  16
ENDBRANCH  14  15
ENDBRANCH   1  14
TORSDOF 7
