REMARK  7 active torsions:
REMARK  status: ('A' for Active; 'I' for Inactive)
REMARK    1  A    between atoms: C_2  and  N_3 
REMARK    2  A    between atoms: C_2  and  C_13 
REMARK    3  A    between atoms: N_3  and  C_4 
REMARK    4  A    between atoms: C_4  and  C_5 
REMARK    5  A    between atoms: C_5  and  C_6 
REMARK    6  A    between atoms: C_6  and  N_7 
REMARK    7  A    between atoms: C_13  and  N_15 
ROOT
HETATM    1  C   UNL     1       0.859  -0.094  -0.123  1.00  0.00     0.045 C 
HETATM    2  C   UNL     1       2.395  -0.083  -0.035  1.00  0.00     0.240 C 
ENDROOT
BRANCH   2   3
HETATM    3  N   UNL     1       2.876   0.915   0.959  1.00  0.00     0.089 N 
HETATM    4  H   UNL     1       3.897   0.888   0.981  1.00  0.00     0.316 HD
BRANCH   3   5
HETATM    5  C   UNL     1       2.448   2.286   0.671  1.00  0.00     0.272 C 
BRANCH   5   6
HETATM    6  C   UNL     1       2.994   3.265   1.718  1.00  0.00     0.050 C 
BRANCH   6   7
HETATM    7  C   UNL     1       2.470   4.669   1.416  1.00  0.00     0.127 C 
BRANCH   7   8
HETATM    8  N   UNL     1       2.928   5.704   2.325  1.00  0.00    -0.352 N 
HETATM    9  C   UNL     1       4.332   5.962   2.535  1.00  0.00     0.126 C 
HETATM   10  C   UNL     1       4.383   7.287   3.272  1.00  0.00     0.029 C 
HETATM   11  C   UNL     1       3.066   7.970   2.952  1.00  0.00     0.104 C 
HETATM   12  C   UNL     1       2.165   6.856   2.491  1.00  0.00     0.219 C 
HETATM   13  O   UNL     1       0.979   6.986   2.227  1.00  0.00    -0.273 OA
ENDBRANCH   7   8
ENDBRANCH   6   7
ENDBRANCH   5   6
ENDBRANCH   3   5
ENDBRANCH   2   3
BRANCH   2  14
HETATM   14  C   UNL     1       2.977  -1.494   0.306  1.00  0.00     0.136 C 
HETATM   15  C   UNL     1       2.592  -2.007   1.702  1.00  0.00     0.036 C 
BRANCH  14  16
HETATM   16  N   UNL     1       2.689  -2.476  -0.740  1.00  0.00    -0.297 N 
HETATM   17  C   UNL     1       1.622  -3.333  -0.821  1.00  0.00     0.118 A 
HETATM   18  C   UNL     1       1.787  -4.065  -1.977  1.00  0.00    -0.028 A 
HETATM   19  C   UNL     1       0.900  -5.115  -2.520  1.00  0.00     0.051 C 
HETATM   20  C   UNL     1       2.999  -3.579  -2.516  1.00  0.00     0.115 A 
HETATM   21  N   UNL     1       3.542  -2.611  -1.776  1.00  0.00    -0.309 N 
ATOM     22  HN  UNL     1       4.403  -2.093  -1.953  1.00  0.00     0.186 HD
ENDBRANCH  14  16
ENDBRANCH   2  14
TORSDOF 7
