REMARK  4 active torsions:
REMARK  status: ('A' for Active; 'I' for Inactive)
REMARK       I    between atoms: C_2  and  N_4 
REMARK    1  A    between atoms: N_4  and  C_5 
REMARK       I    between atoms: N_9  and  C_11 
REMARK       I    between atoms: C_11  and  N_13 
REMARK    2  A    between atoms: N_13  and  C_14 
REMARK    3  A    between atoms: C_14  and  C_15 
REMARK    4  A    between atoms: C_15  and  C_16 
ROOT
HETATM    1  C   UNL     1       4.720  -0.993   0.951  1.00  0.00     0.102 C 
HETATM    2  C   UNL     1       5.210  -2.425   1.209  1.00  0.00     0.028 C 
HETATM    3  C   UNL     1       4.834  -2.924   2.607  1.00  0.00     0.022 C 
HETATM    4  C   UNL     1       5.263  -1.938   3.691  1.00  0.00     0.127 C 
HETATM    5  N   UNL     1       4.769  -0.592   3.401  1.00  0.00    -0.332 N 
HETATM    6  C   UNL     1       5.172  -0.058   2.091  1.00  0.00     0.152 C 
HETATM    7  C   UNL     1       3.919   0.171   4.175  1.00  0.00     0.318 C 
HETATM    8  O   UNL     1       3.541   1.289   3.835  1.00  0.00    -0.247 OA
HETATM    9  N   UNL     1       3.466  -0.419   5.328  1.00  0.00    -0.343 N 
HETATM   10  H   UNL     1       4.160  -0.958   5.820  1.00  0.00     0.164 HD
ENDROOT
BRANCH   9  11
HETATM   11  C   UNL     1       2.530   0.291   6.194  1.00  0.00     0.130 C 
BRANCH  11  12
HETATM   12  C   UNL     1       1.175   0.566   5.534  1.00  0.00     0.076 C 
BRANCH  12  13
HETATM   13  C   UNL     1       0.259   1.338   6.444  1.00  0.00     0.010 A 
HETATM   14  C   UNL     1      -0.172   2.616   6.093  1.00  0.00     0.025 A 
HETATM   15  C   UNL     1      -1.041   3.293   6.943  1.00  0.00     0.003 A 
HETATM   16  C   UNL     1      -1.457   2.679   8.118  1.00  0.00     0.017 A 
HETATM   17  C   UNL     1      -0.982   1.408   8.394  1.00  0.00     0.088 A 
HETATM   18  N   UNL     1      -0.138   0.726   7.588  1.00  0.00    -0.369 N 
ATOM     19  HN  UNL     1       0.187  -0.210   7.830  1.00  0.00     0.165 HD
ENDBRANCH  12  13
ENDBRANCH  11  12
ENDBRANCH   9  11
BRANCH   1  20
HETATM   20  N   UNL     1       3.268  -0.983   0.780  1.00  0.00    -0.355 N 
HETATM   21  C   UNL     1       2.649  -0.061  -0.036  1.00  0.00     0.213 C 
HETATM   22  C   UNL     1       1.150  -0.198  -0.055  1.00  0.00     0.117 C 
HETATM   23  O   UNL     1       3.249   0.759  -0.721  1.00  0.00    -0.274 OA
HETATM   24  H   UNL     1       2.708  -1.383   1.524  1.00  0.00     0.162 HD
ENDBRANCH   1  20
TORSDOF 4
