REMARK  4 active torsions:
REMARK  status: ('A' for Active; 'I' for Inactive)
REMARK    1  A    between atoms: C_2  and  C_4 
REMARK    2  A    between atoms: C_2  and  C_20 
REMARK    3  A    between atoms: C_4  and  N_5 
REMARK       I    between atoms: N_5  and  C_6 
REMARK       I    between atoms: C_6  and  N_8 
REMARK       I    between atoms: N_12  and  C_15 
REMARK    4  A    between atoms: C_15  and  C_17 
ROOT
HETATM    1  N   UNL     1       2.645   0.753   2.410  1.00  0.00    -0.342 N 
HETATM    2  C   UNL     1       2.946   0.511   3.725  1.00  0.00     0.318 C 
HETATM    3  O   UNL     1       3.683  -0.410   4.063  1.00  0.00    -0.247 OA
HETATM    4  N   UNL     1       2.344   1.373   4.634  1.00  0.00    -0.333 N 
HETATM    5  C   UNL     1       2.541   1.085   6.056  1.00  0.00     0.129 C 
HETATM    6  C   UNL     1       3.721   1.867   6.629  1.00  0.00     0.040 C 
HETATM    7  C   UNL     1       3.300   3.230   7.176  1.00  0.00     0.127 C 
HETATM    8  N   UNL     1       2.390   3.996   6.322  1.00  0.00    -0.350 N 
HETATM    9  C   UNL     1       2.547   3.874   4.867  1.00  0.00     0.145 C 
HETATM   10  C   UNL     1       1.755   2.682   4.296  1.00  0.00     0.147 C 
HETATM   11  C   UNL     1       1.337   4.786   6.790  1.00  0.00     0.224 C 
HETATM   12  O   UNL     1       0.546   5.335   6.027  1.00  0.00    -0.273 OA
HETATM   13  H   UNL     1       1.686   1.042   2.273  1.00  0.00     0.164 HD
ENDROOT
BRANCH   1  14
HETATM   14  C   UNL     1       3.162  -0.148   1.388  1.00  0.00     0.138 C 
BRANCH  14  15
HETATM   15  C   UNL     1       2.864   0.318  -0.067  1.00  0.00    -0.004 C 
HETATM   16  C   UNL     1       3.651   1.626  -0.323  1.00  0.00     0.021 C 
HETATM   17  C   UNL     1       3.431  -0.743  -1.038  1.00  0.00     0.021 C 
BRANCH  15  18
HETATM   18  C   UNL     1       1.347   0.466  -0.293  1.00  0.00    -0.046 A 
HETATM   19  C   UNL     1       0.760   1.665  -0.723  1.00  0.00     0.025 A 
HETATM   20  C   UNL     1      -0.621   1.746  -0.846  1.00  0.00     0.088 A 
HETATM   21  N   UNL     1      -1.461   0.728  -0.580  1.00  0.00    -0.375 N 
HETATM   22  C   UNL     1      -0.893  -0.428  -0.187  1.00  0.00     0.088 A 
ATOM     23  HN  UNL     1      -2.472   0.827  -0.671  1.00  0.00     0.164 HD
HETATM   24  C   UNL     1       0.476  -0.606  -0.037  1.00  0.00     0.025 A 
ENDBRANCH  15  18
ENDBRANCH  14  15
ENDBRANCH   1  14
BRANCH  11  25
HETATM   25  C   UNL     1       1.142   4.935   8.265  1.00  0.00     0.078 A 
HETATM   26  C   UNL     1      -0.202   4.575   8.861  1.00  0.00     0.015 A 
HETATM   27  C   UNL     1       0.234   6.009   8.823  1.00  0.00     0.015 A 
ENDBRANCH  11  25
TORSDOF 4
