REMARK  4 active torsions:
REMARK  status: ('A' for Active; 'I' for Inactive)
REMARK    1  A    between atoms: C_2  and  C_4 
REMARK    2  A    between atoms: C_4  and  N_5 
REMARK    3  A    between atoms: C_8  and  N_11 
REMARK       I    between atoms: N_11  and  C_12 
REMARK       I    between atoms: C_12  and  N_14 
REMARK    4  A    between atoms: N_14  and  C_15 
ROOT
HETATM    1  N   UNL     1       6.823  -2.075  -1.011  1.00  0.00    -0.338 N 
HETATM    2  C   UNL     1       7.190  -2.670  -2.202  1.00  0.00     0.321 C 
HETATM    3  O   UNL     1       6.391  -2.904  -3.101  1.00  0.00    -0.247 OA
HETATM    4  N   UNL     1       8.521  -3.023  -2.217  1.00  0.00    -0.305 N 
HETATM    5  H   UNL     1       7.523  -1.477  -0.594  1.00  0.00     0.164 HD
HETATM    6  H   UNL     1       8.868  -3.376  -1.336  1.00  0.00     0.171 HD
ENDROOT
BRANCH   1   7
HETATM    7  C   UNL     1       5.414  -1.740  -0.797  1.00  0.00     0.089 C 
HETATM    8  C   UNL     1       5.011  -0.424  -1.478  1.00  0.00     0.055 C 
HETATM    9  C   UNL     1       5.183   0.813  -0.594  1.00  0.00     0.275 C 
HETATM   10  N   UNL     1       4.654   0.675   0.768  1.00  0.00     0.092 N 
HETATM   11  C   UNL     1       5.262  -0.488   1.423  1.00  0.00     0.275 C 
HETATM   12  C   UNL     1       5.040  -1.804   0.684  1.00  0.00     0.055 C 
BRANCH  10  13
HETATM   13  C   UNL     1       3.184   0.657   0.843  1.00  0.00     0.305 C 
BRANCH  13  14
HETATM   14  C   UNL     1       2.531   2.006   0.611  1.00  0.00    -0.065 C 
HETATM   15  C   UNL     1       2.965   3.139   1.500  1.00  0.00     0.044 C 
HETATM   16  C   UNL     1       1.553   2.183  -0.296  1.00  0.00     0.015 C 
ENDBRANCH  13  14
ENDBRANCH  10  13
ENDBRANCH   1   7
BRANCH   4  17
HETATM   17  C   UNL     1       9.088  -3.554  -3.373  1.00  0.00     0.092 A 
HETATM   18  C   UNL     1       8.949  -3.164  -4.733  1.00  0.00     0.058 A 
HETATM   19  C   UNL     1       8.218  -2.014  -5.317  1.00  0.00     0.072 C 
HETATM   20  N   UNL     1       9.662  -3.962  -5.539  1.00  0.00    -0.263 N 
HETATM   21  O   UNL     1      10.290  -4.872  -4.712  1.00  0.00    -0.240 OA
ATOM     22  HN  UNL     1       9.728  -3.908  -6.555  1.00  0.00     0.194 HD
HETATM   23  C   UNL     1       9.969  -4.614  -3.417  1.00  0.00     0.101 A 
HETATM   24  C   UNL     1      10.544  -5.524  -2.412  1.00  0.00     0.081 C 
ENDBRANCH   4  17
TORSDOF 4
