REMARK  2 active torsions:
REMARK  status: ('A' for Active; 'I' for Inactive)
REMARK    1  A    between atoms: N_2  and  C_3 
REMARK    2  A    between atoms: C_6  and  N_10 
ROOT
HETATM    1  C   UNL     1       3.108  -1.244  -0.138  1.00  0.00     0.023 A 
HETATM    2  C   UNL     1       4.362  -1.227  -0.738  1.00  0.00     0.028 A 
HETATM    3  C   UNL     1       5.003  -2.422  -1.072  1.00  0.00     0.050 A 
HETATM    4  C   UNL     1       4.418  -3.647  -0.763  1.00  0.00     0.103 A 
HETATM    5  N   UNL     1       3.247  -3.684  -0.095  1.00  0.00    -0.351 N 
ATOM      6  HN  UNL     1       2.832  -4.574   0.182  1.00  0.00     0.166 HD
HETATM    7  C   UNL     1       2.633  -2.508   0.200  1.00  0.00     0.113 A 
ENDROOT
BRANCH   4   8
HETATM    8  N   UNL     1       4.997  -4.835  -1.131  1.00  0.00    -0.363 N 
HETATM    9  C   UNL     1       5.830  -4.993  -2.320  1.00  0.00     0.150 C 
HETATM   10  C   UNL     1       5.387  -6.243  -3.100  1.00  0.00     0.187 C 
HETATM   11  O   UNL     1       5.379  -7.413  -2.267  1.00  0.00    -0.388 OA
HETATM   12  C   UNL     1       4.448  -7.236  -1.183  1.00  0.00     0.187 C 
HETATM   13  C   UNL     1       4.820  -6.032  -0.306  1.00  0.00     0.150 C 
ENDBRANCH   4   8
BRANCH   1  14
HETATM   14  N   UNL     1       2.485  -0.033   0.192  1.00  0.00    -0.296 NA
HETATM   15  C   UNL     1       1.031  -0.019   0.199  1.00  0.00     0.113 C 
HETATM   16  H   UNL     1       2.869   0.739  -0.348  1.00  0.00     0.127 HD
ENDBRANCH   1  14
TORSDOF 2
