REMARK  6 active torsions:
REMARK  status: ('A' for Active; 'I' for Inactive)
REMARK    1  A    between atoms: C_2  and  N_3 
REMARK    2  A    between atoms: C_2  and  C_14 
REMARK    3  A    between atoms: N_3  and  C_4 
REMARK    4  A    between atoms: C_4  and  C_5 
REMARK       I    between atoms: C_5  and  N_7 
REMARK    5  A    between atoms: N_7  and  C_8 
REMARK    6  A    between atoms: C_14  and  N_16 
ROOT
HETATM    1  N   UNL     1       2.621   0.979   1.094  1.00  0.00     0.098 N 
HETATM    2  H   UNL     1       3.579   0.860   1.433  1.00  0.00     0.317 HD
ENDROOT
BRANCH   1   3
HETATM    3  C   UNL     1       2.395   0.026  -0.023  1.00  0.00     0.241 C 
HETATM    4  C   UNL     1       3.411   0.281  -1.148  1.00  0.00     0.045 C 
BRANCH   3   5
HETATM    5  C   UNL     1       0.924  -0.032  -0.541  1.00  0.00     0.136 C 
HETATM    6  C   UNL     1       0.717  -1.026  -1.691  1.00  0.00     0.036 C 
BRANCH   5   7
HETATM    7  N   UNL     1      -0.028  -0.333   0.533  1.00  0.00    -0.297 N 
HETATM    8  C   UNL     1      -1.088   0.442   0.917  1.00  0.00     0.118 A 
HETATM    9  C   UNL     1      -1.795  -0.291   1.846  1.00  0.00    -0.028 A 
HETATM   10  C   UNL     1      -3.048   0.072   2.545  1.00  0.00     0.051 C 
HETATM   11  C   UNL     1      -1.056  -1.489   1.969  1.00  0.00     0.115 A 
HETATM   12  N   UNL     1       0.011  -1.522   1.169  1.00  0.00    -0.309 N 
ATOM     13  HN  UNL     1       0.696  -2.271   1.063  1.00  0.00     0.186 HD
ENDBRANCH   5   7
ENDBRANCH   3   5
ENDBRANCH   1   3
BRANCH   1  14
HETATM   14  C   UNL     1       2.435   2.401   0.738  1.00  0.00     0.372 C 
BRANCH  14  15
HETATM   15  C   UNL     1       2.627   3.294   1.967  1.00  0.00     0.246 C 
HETATM   16  O   UNL     1       2.889   4.489   1.872  1.00  0.00    -0.272 OA
HETATM   17  N   UNL     1       2.414   2.654   3.164  1.00  0.00    -0.355 N 
HETATM   18  H   UNL     1       2.064   1.700   3.078  1.00  0.00     0.162 HD
BRANCH  17  19
HETATM   19  C   UNL     1       2.371   3.355   4.440  1.00  0.00     0.088 C 
HETATM   20  C   UNL     1       2.616   2.392   5.603  1.00  0.00     0.051 C 
HETATM   21  C   UNL     1       1.399   1.512   5.859  1.00  0.00     0.169 C 
HETATM   22  O   UNL     1       0.226   2.301   6.053  1.00  0.00    -0.391 OA
HETATM   23  C   UNL     1      -0.084   3.101   4.912  1.00  0.00     0.169 C 
HETATM   24  C   UNL     1       1.040   4.088   4.634  1.00  0.00     0.051 C 
ENDBRANCH  17  19
ENDBRANCH  14  15
ENDBRANCH   1  14
TORSDOF 6
