REMARK  4 active torsions:
REMARK  status: ('A' for Active; 'I' for Inactive)
REMARK       I    between atoms: N_2  and  C_4 
REMARK    1  A    between atoms: C_4  and  C_6 
REMARK    2  A    between atoms: C_6  and  C_7 
REMARK    3  A    between atoms: C_7  and  N_8 
REMARK       I    between atoms: N_8  and  C_9 
REMARK       I    between atoms: C_9  and  N_11 
REMARK    4  A    between atoms: N_11  and  C_12 
ROOT
HETATM    1  N   UNL     1       6.836  -0.616  -0.689  1.00  0.00    -0.342 N 
HETATM    2  C   UNL     1       7.327  -0.914  -1.946  1.00  0.00     0.320 C 
HETATM    3  O   UNL     1       6.610  -1.299  -2.858  1.00  0.00    -0.247 OA
HETATM    4  N   UNL     1       8.680  -0.666  -2.035  1.00  0.00    -0.309 N 
HETATM    5  H   UNL     1       7.430  -0.947   0.057  1.00  0.00     0.164 HD
HETATM    6  H   UNL     1       8.982   0.105  -1.453  1.00  0.00     0.170 HD
ENDROOT
BRANCH   1   7
HETATM    7  C   UNL     1       5.392  -0.662  -0.510  1.00  0.00     0.143 C 
BRANCH   7   8
HETATM    8  C   UNL     1       4.845  -0.622   0.931  1.00  0.00     0.057 C 
HETATM    9  C   UNL     1       5.362  -1.748   1.839  1.00  0.00     0.021 C 
HETATM   10  C   UNL     1       6.563  -1.206   2.619  1.00  0.00     0.001 C 
HETATM   11  C   UNL     1       6.649   0.283   2.332  1.00  0.00     0.001 C 
HETATM   12  C   UNL     1       5.323   0.642   1.688  1.00  0.00     0.021 C 
BRANCH   8  13
HETATM   13  C   UNL     1       3.299  -0.581   0.823  1.00  0.00     0.229 C 
HETATM   14  N   UNL     1       2.568  -1.682   0.376  1.00  0.00    -0.360 N 
HETATM   15  C   UNL     1       1.121  -1.506   0.337  1.00  0.00     0.152 C 
HETATM   16  C   UNL     1       3.052  -3.044   0.209  1.00  0.00     0.152 C 
HETATM   17  O   UNL     1       2.702   0.476   1.071  1.00  0.00    -0.272 OA
ENDBRANCH   8  13
ENDBRANCH   7   8
ENDBRANCH   1   7
BRANCH   4  18
HETATM   18  C   UNL     1       9.366  -0.851  -3.256  1.00  0.00     0.038 A 
HETATM   19  C   UNL     1      10.250   0.131  -3.689  1.00  0.00     0.046 A 
HETATM   20  C   UNL     1      10.826  -0.023  -4.940  1.00  0.00     0.090 A 
HETATM   21  N   UNL     1      10.626  -1.093  -5.740  1.00  0.00    -0.375 N 
HETATM   22  C   UNL     1       9.796  -2.050  -5.274  1.00  0.00     0.090 A 
ATOM     23  HN  UNL     1      11.079  -1.174  -6.650  1.00  0.00     0.164 HD
HETATM   24  C   UNL     1       9.149  -1.976  -4.053  1.00  0.00     0.046 A 
ENDBRANCH   4  18
TORSDOF 4
