REMARK  6 active torsions:
REMARK  status: ('A' for Active; 'I' for Inactive)
REMARK    1  A    between atoms: C_2  and  C_3 
REMARK    2  A    between atoms: C_2  and  N_7 
REMARK    3  A    between atoms: C_3  and  C_4 
REMARK       I    between atoms: C_4  and  N_6 
REMARK    4  A    between atoms: N_7  and  C_8 
REMARK    5  A    between atoms: C_8  and  C_9 
REMARK    6  A    between atoms: C_9  and  N_10 
ROOT
HETATM    1  N   UNL     1       3.064  -0.822   1.087  1.00  0.00     0.089 N 
HETATM    2  H   UNL     1       2.776  -0.152   0.370  1.00  0.00     0.316 HD
ENDROOT
BRANCH   1   3
HETATM    3  C   UNL     1       2.554  -0.366   2.401  1.00  0.00     0.225 C 
HETATM    4  C   UNL     1       3.092   1.025   2.764  1.00  0.00     0.043 C 
BRANCH   3   5
HETATM    5  C   UNL     1       1.017  -0.361   2.339  1.00  0.00     0.137 C 
BRANCH   5   6
HETATM    6  C   UNL     1       0.393  -0.043   3.682  1.00  0.00     0.217 C 
HETATM    7  O   UNL     1       0.909  -0.288   4.765  1.00  0.00    -0.274 OA
HETATM    8  N   UNL     1      -0.844   0.527   3.616  1.00  0.00    -0.370 N 
HETATM    9  H   UNL     1      -1.344   0.668   2.749  1.00  0.00     0.159 HD
HETATM   10  H   UNL     1      -1.305   0.747   4.488  1.00  0.00     0.159 HD
ENDBRANCH   5   6
ENDBRANCH   3   5
ENDBRANCH   1   3
BRANCH   1  11
HETATM   11  C   UNL     1       4.530  -0.961   1.018  1.00  0.00     0.291 C 
BRANCH  11  12
HETATM   12  C   UNL     1       5.127  -1.983   1.988  1.00  0.00     0.178 C 
BRANCH  12  13
HETATM   13  N   UNL     1       6.576  -2.003   1.901  1.00  0.00    -0.302 N 
HETATM   14  C   UNL     1       7.339  -2.791   1.090  1.00  0.00     0.118 A 
HETATM   15  C   UNL     1       8.651  -2.456   1.348  1.00  0.00    -0.028 A 
HETATM   16  C   UNL     1       9.876  -3.008   0.732  1.00  0.00     0.051 C 
HETATM   17  C   UNL     1       8.562  -1.458   2.344  1.00  0.00     0.115 A 
HETATM   18  N   UNL     1       7.301  -1.172   2.673  1.00  0.00    -0.310 N 
ATOM     19  HN  UNL     1       6.966  -0.486   3.349  1.00  0.00     0.186 HD
ENDBRANCH  12  13
ENDBRANCH  11  12
ENDBRANCH   1  11
TORSDOF 6
