REMARK  7 active torsions:
REMARK  status: ('A' for Active; 'I' for Inactive)
REMARK    1  A    between atoms: O_2  and  C_3 
REMARK    2  A    between atoms: C_6  and  O_7 
REMARK    3  A    between atoms: O_7  and  C_8 
REMARK    4  A    between atoms: C_8  and  C_9 
REMARK    5  A    between atoms: C_9  and  N_10 
REMARK    6  A    between atoms: C_11  and  C_12 
REMARK    7  A    between atoms: C_12  and  O_13 
ROOT
HETATM    1  N   UNL     1       6.029   4.064  -6.893  1.00  0.00    -0.331 N 
HETATM    2  C   UNL     1       7.393   3.972  -7.083  1.00  0.00     0.108 A 
HETATM    3  N   UNL     1       7.665   3.576  -8.312  1.00  0.00    -0.342 N 
ATOM      4  HN  UNL     1       8.589   3.445  -8.724  1.00  0.00     0.167 HD
HETATM    5  C   UNL     1       6.454   3.376  -8.922  1.00  0.00     0.060 A 
HETATM    6  C   UNL     1       6.180   2.931 -10.225  1.00  0.00     0.032 A 
HETATM    7  C   UNL     1       4.847   2.796 -10.631  1.00  0.00     0.002 A 
HETATM    8  C   UNL     1       3.807   3.109  -9.758  1.00  0.00     0.002 A 
HETATM    9  C   UNL     1       4.061   3.560  -8.456  1.00  0.00     0.032 A 
HETATM   10  C   UNL     1       5.401   3.679  -8.060  1.00  0.00     0.062 A 
ENDROOT
BRANCH   1  11
HETATM   11  C   UNL     1       5.361   4.494  -5.679  1.00  0.00     0.157 C 
BRANCH  11  12
HETATM   12  C   UNL     1       5.000   3.324  -4.770  1.00  0.00     0.196 C 
BRANCH  12  13
HETATM   13  O   UNL     1       4.333   3.769  -3.585  1.00  0.00    -0.350 OA
BRANCH  13  14
HETATM   14  C   UNL     1       2.968   3.764  -3.606  1.00  0.00     0.069 A 
HETATM   15  C   UNL     1       2.346   3.614  -2.368  1.00  0.00     0.039 A 
HETATM   16  C   UNL     1       0.953   3.633  -2.266  1.00  0.00     0.039 A 
HETATM   17  C   UNL     1       0.171   3.833  -3.404  1.00  0.00     0.068 A 
HETATM   18  C   UNL     1       0.788   3.969  -4.641  1.00  0.00     0.039 A 
HETATM   19  C   UNL     1       2.180   3.940  -4.742  1.00  0.00     0.039 A 
BRANCH  17  20
HETATM   20  O   UNL     1      -1.195   3.885  -3.423  1.00  0.00    -0.356 OA
HETATM   21  C   UNL     1      -1.792   4.380  -2.230  1.00  0.00     0.210 C 
ENDBRANCH  17  20
ENDBRANCH  13  14
ENDBRANCH  12  13
ENDBRANCH  11  12
ENDBRANCH   1  11
BRANCH   2  22
HETATM   22  C   UNL     1       8.417   4.247  -6.034  1.00  0.00     0.240 C 
BRANCH  22  23
HETATM   23  O   UNL     1       8.338   5.620  -5.678  1.00  0.00    -0.393 OA
HETATM   24  H   UNL     1       8.647   6.115  -6.458  1.00  0.00     0.209 HD
ENDBRANCH  22  23
ENDBRANCH   2  22
TORSDOF 7
