REMARK  6 active torsions:
REMARK  status: ('A' for Active; 'I' for Inactive)
REMARK    1  A    between atoms: C_7  and  N_8 
REMARK       I    between atoms: N_8  and  C_9 
REMARK    2  A    between atoms: C_9  and  C_11 
REMARK    3  A    between atoms: C_11  and  N_12 
REMARK    4  A    between atoms: C_15  and  C_16 
REMARK    5  A    between atoms: C_16  and  N_17 
REMARK    6  A    between atoms: N_21  and  C_22 
ROOT
HETATM    1  N   UNL     1       1.177  -2.586   3.523  1.00  0.00    -0.256 N 
HETATM    2  C   UNL     1       1.239  -2.491   4.906  1.00  0.00     0.273 C 
HETATM    3  O   UNL     1       2.080  -3.060   5.595  1.00  0.00    -0.266 OA
HETATM    4  C   UNL     1       0.176  -1.684   5.549  1.00  0.00     0.110 C 
HETATM    5  C   UNL     1      -0.752  -1.105   4.781  1.00  0.00     0.123 C 
HETATM    6  N   UNL     1      -0.803  -1.307   3.419  1.00  0.00    -0.303 N 
HETATM    7  C   UNL     1       0.111  -2.128   2.753  1.00  0.00     0.332 C 
HETATM    8  O   UNL     1       0.000  -2.426   1.562  1.00  0.00    -0.246 OA
ENDROOT
BRANCH   1   9
HETATM    9  C   UNL     1       2.200  -3.351   2.820  1.00  0.00     0.239 C 
BRANCH   9  10
HETATM   10  C   UNL     1       3.009  -2.434   1.891  1.00  0.00     0.236 C 
HETATM   11  N   UNL     1       2.538  -2.396   0.590  1.00  0.00    -0.355 N 
HETATM   12  H   UNL     1       1.554  -2.645   0.470  1.00  0.00     0.162 HD
HETATM   13  O   UNL     1       3.950  -1.754   2.289  1.00  0.00    -0.272 OA
BRANCH  11  14
HETATM   14  C   UNL     1       3.144  -1.571  -0.448  1.00  0.00     0.088 C 
HETATM   15  C   UNL     1       2.701  -0.089  -0.391  1.00  0.00     0.004 C 
HETATM   16  C   UNL     1       1.184   0.114  -0.490  1.00  0.00     0.012 C 
HETATM   17  C   UNL     1       3.418   0.701  -1.502  1.00  0.00     0.006 C 
HETATM   18  C   UNL     1       3.211   0.096  -2.892  1.00  0.00     0.001 C 
HETATM   19  C   UNL     1       3.583  -1.383  -2.933  1.00  0.00     0.002 C 
HETATM   20  C   UNL     1       2.894  -2.186  -1.832  1.00  0.00     0.025 C 
ENDBRANCH  11  14
ENDBRANCH   9  10
ENDBRANCH   1   9
BRANCH   4  21
HETATM   21  C   UNL     1       0.129  -1.568   7.064  1.00  0.00    -0.030 C 
BRANCH  21  22
HETATM   22  N   UNL     1       0.090  -1.471   8.320  1.00  0.00    -0.365 N 
ATOM     23  HN2 UNL     1       0.120  -1.515   7.301  1.00  0.00     0.165 HD
ATOM     24  HN1 UNL     1       0.058  -1.393   9.337  1.00  0.00     0.165 HD
ENDBRANCH  21  22
ENDBRANCH   4  21
BRANCH   6  25
HETATM   25  C   UNL     1      -1.793  -0.572   2.661  1.00  0.00     0.094 A 
HETATM   26  C   UNL     1      -3.273  -0.676   2.931  1.00  0.00     0.028 A 
HETATM   27  C   UNL     1      -2.707  -1.243   1.667  1.00  0.00     0.028 A 
ENDBRANCH   6  25
TORSDOF 6
