REMARK  4 active torsions:
REMARK  status: ('A' for Active; 'I' for Inactive)
REMARK    1  A    between atoms: C_2  and  C_4 
REMARK    2  A    between atoms: C_4  and  N_6 
REMARK       I    between atoms: N_6  and  C_7 
REMARK    3  A    between atoms: C_7  and  C_9 
REMARK    4  A    between atoms: C_9  and  C_10 
ROOT
HETATM    1  C   UNL     1       7.397   0.922  -2.497  1.00  0.00     0.041 A 
HETATM    2  C   UNL     1       7.843   0.968  -3.769  1.00  0.00     0.018 A 
HETATM    3  C   UNL     1       7.632   2.149  -4.682  1.00  0.00     0.069 C 
HETATM    4  N   UNL     1       8.542  -0.056  -4.371  1.00  0.00    -0.349 N 
ATOM      5  HN  UNL     1       8.855   0.020  -5.339  1.00  0.00     0.167 HD
HETATM    6  C   UNL     1       8.789  -1.114  -3.675  1.00  0.00     0.080 A 
HETATM    7  C   UNL     1       9.586  -2.247  -4.253  1.00  0.00     0.089 C 
HETATM    8  N   UNL     1       8.369  -1.281  -2.390  1.00  0.00    -0.313 N 
HETATM    9  C   UNL     1       7.625  -0.339  -1.749  1.00  0.00     0.255 A 
HETATM   10  O   UNL     1       7.171  -0.518  -0.623  1.00  0.00    -0.268 OA
HETATM   11  H   UNL     1       8.538  -2.140  -1.890  1.00  0.00     0.170 HD
ENDROOT
BRANCH   1  12
HETATM   12  C   UNL     1       6.719   2.017  -1.729  1.00  0.00     0.149 C 
BRANCH  12  13
HETATM   13  C   UNL     1       5.217   1.930  -1.922  1.00  0.00     0.222 C 
HETATM   14  N   UNL     1       4.565   1.144  -0.997  1.00  0.00    -0.356 N 
HETATM   15  H   UNL     1       5.110   0.686  -0.271  1.00  0.00     0.162 HD
HETATM   16  O   UNL     1       4.649   2.507  -2.843  1.00  0.00    -0.273 OA
BRANCH  14  17
HETATM   17  C   UNL     1       3.114   0.978  -1.014  1.00  0.00     0.083 C 
HETATM   18  C   UNL     1       2.469   2.137  -0.247  1.00  0.00     0.032 C 
BRANCH  17  19
HETATM   19  C   UNL     1       2.702  -0.407  -0.452  1.00  0.00    -0.000 C 
HETATM   20  C   UNL     1       1.188  -0.632  -0.540  1.00  0.00     0.011 C 
HETATM   21  C   UNL     1       3.410  -1.548  -1.196  1.00  0.00     0.011 C 
ENDBRANCH  17  19
ENDBRANCH  14  17
ENDBRANCH  12  13
ENDBRANCH   1  12
TORSDOF 4
