REMARK  5 active torsions:
REMARK  status: ('A' for Active; 'I' for Inactive)
REMARK    1  A    between atoms: O_2  and  C_3 
REMARK    2  A    between atoms: C_3  and  C_4 
REMARK    3  A    between atoms: C_4  and  N_5 
REMARK    4  A    between atoms: C_8  and  C_13 
REMARK       I    between atoms: C_13  and  N_15 
REMARK    5  A    between atoms: N_15  and  C_16 
REMARK       I    between atoms: N_19  and  C_22 
ROOT
HETATM    1  C   UNL     1       5.064   5.757  -1.883  1.00  0.00     0.269 C 
HETATM    2  O   UNL     1       5.268   6.586  -2.758  1.00  0.00    -0.266 OA
HETATM    3  N   UNL     1       4.986   6.042  -0.531  1.00  0.00    -0.351 N 
HETATM    4  H   UNL     1       4.931   5.252   0.106  1.00  0.00     0.163 HD
ENDROOT
BRANCH   1   5
HETATM    5  C   UNL     1       4.838   4.291  -2.273  1.00  0.00     0.116 A 
HETATM    6  N   UNL     1       5.086   3.344  -1.417  1.00  0.00    -0.290 N 
HETATM    7  N   UNL     1       4.891   2.037  -1.859  1.00  0.00    -0.255 N 
ATOM      8  HN  UNL     1       5.407   3.548  -0.470  1.00  0.00     0.187 HD
HETATM    9  C   UNL     1       4.493   1.699  -3.151  1.00  0.00     0.262 A 
HETATM   10  C   UNL     1       4.199   2.824  -4.058  1.00  0.00     0.078 A 
HETATM   11  O   UNL     1       4.353   0.554  -3.569  1.00  0.00    -0.267 OA
HETATM   12  C   UNL     1       4.341   4.082  -3.650  1.00  0.00     0.042 A 
BRANCH   7  13
HETATM   13  C   UNL     1       5.048   0.970  -0.873  1.00  0.00     0.178 C 
BRANCH  13  14
HETATM   14  C   UNL     1       6.232   0.038  -1.145  1.00  0.00     0.189 C 
BRANCH  14  15
HETATM   15  O   UNL     1       6.271  -0.972  -0.130  1.00  0.00    -0.394 OA
HETATM   16  C   UNL     1       7.309  -1.915  -0.370  1.00  0.00     0.201 C 
ENDBRANCH  14  15
ENDBRANCH  13  14
ENDBRANCH   7  13
ENDBRANCH   1   5
BRANCH   3  17
HETATM   17  C   UNL     1       5.136   7.411  -0.044  1.00  0.00     0.087 C 
HETATM   18  C   UNL     1       6.581   7.765   0.308  1.00  0.00     0.045 C 
HETATM   19  C   UNL     1       7.047   7.184   1.640  1.00  0.00     0.127 C 
HETATM   20  N   UNL     1       6.085   7.339   2.731  1.00  0.00    -0.352 N 
HETATM   21  C   UNL     1       4.682   7.072   2.421  1.00  0.00     0.127 C 
HETATM   22  C   UNL     1       6.439   7.219   4.078  1.00  0.00     0.215 C 
HETATM   23  C   UNL     1       4.216   7.725   1.131  1.00  0.00     0.045 C 
HETATM   24  O   UNL     1       5.598   7.204   4.979  1.00  0.00    -0.274 OA
HETATM   25  C   UNL     1       7.902   7.122   4.438  1.00  0.00     0.117 C 
ENDBRANCH   3  17
TORSDOF 5
