REMARK  7 active torsions:
REMARK  status: ('A' for Active; 'I' for Inactive)
REMARK       I    between atoms: N_2  and  C_3 
REMARK    1  A    between atoms: C_3  and  C_5 
REMARK    2  A    between atoms: C_5  and  N_6 
REMARK    3  A    between atoms: N_6  and  C_8 
REMARK    4  A    between atoms: C_8  and  C_9 
REMARK    5  A    between atoms: C_9  and  O_10 
REMARK    6  A    between atoms: C_9  and  C_11 
REMARK    7  A    between atoms: C_11  and  N_12 
ROOT
HETATM    1  C   UNL     1       8.673   0.134  -4.088  1.00  0.00     0.163 C 
ENDROOT
BRANCH   1   2
HETATM    2  C   UNL     1       7.143   0.231  -4.146  1.00  0.00     0.164 C 
BRANCH   2   3
HETATM    3  C   UNL     1       6.522   0.133  -2.733  1.00  0.00     0.305 C 
BRANCH   3   4
HETATM    4  N   UNL     1       5.045   0.282  -2.712  1.00  0.00     0.095 N 
HETATM    5  C   UNL     1       4.586   0.375  -1.315  1.00  0.00     0.310 C 
BRANCH   4   6
HETATM    6  C   UNL     1       4.393  -0.878  -3.380  1.00  0.00     0.374 C 
BRANCH   6   7
HETATM    7  C   UNL     1       2.875  -0.695  -3.495  1.00  0.00     0.245 C 
HETATM    8  N   UNL     1       2.496   0.467  -4.131  1.00  0.00    -0.364 N 
HETATM    9  C   UNL     1       1.110   0.795  -4.333  1.00  0.00     0.149 C 
HETATM   10  H   UNL     1       3.222   1.147  -4.332  1.00  0.00     0.161 HD
HETATM   11  O   UNL     1       2.081  -1.539  -3.091  1.00  0.00    -0.272 OA
ENDBRANCH   6   7
ENDBRANCH   4   6
ENDBRANCH   3   4
ENDBRANCH   2   3
BRANCH   2  12
HETATM   12  O   UNL     1       6.762   1.469  -4.763  1.00  0.00    -0.392 OA
HETATM   13  H   UNL     1       6.717   2.155  -4.077  1.00  0.00     0.210 HD
ENDBRANCH   2  12
ENDBRANCH   1   2
BRANCH   1  14
HETATM   14  N   UNL     1       9.253   0.118  -5.420  1.00  0.00    -0.339 N 
HETATM   15  C   UNL     1       9.663   1.228  -6.106  1.00  0.00     0.184 A 
HETATM   16  N   UNL     1      10.087   0.926  -7.311  1.00  0.00    -0.350 N 
HETATM   17  C   UNL     1       9.923  -0.433  -7.415  1.00  0.00     0.060 A 
ATOM     18  HN  UNL     1      10.458   1.563  -8.017  1.00  0.00     0.166 HD
HETATM   19  C   UNL     1      10.179  -1.277  -8.504  1.00  0.00     0.039 A 
HETATM   20  C   UNL     1       9.420  -0.974  -6.236  1.00  0.00     0.062 A 
HETATM   21  C   UNL     1       9.934  -2.661  -8.392  1.00  0.00    -0.054 A 
HETATM   22  C   UNL     1      10.217  -3.530  -9.587  1.00  0.00     0.049 C 
HETATM   23  C   UNL     1       9.436  -3.190  -7.181  1.00  0.00    -0.054 A 
HETATM   24  C   UNL     1       9.154  -4.659  -6.992  1.00  0.00     0.049 C 
HETATM   25  C   UNL     1       9.170  -2.342  -6.084  1.00  0.00     0.039 A 
ENDBRANCH   1  14
TORSDOF 7
