REMARK  5 active torsions:
REMARK  status: ('A' for Active; 'I' for Inactive)
REMARK    1  A    between atoms: C_4  and  N_5 
REMARK       I    between atoms: N_5  and  C_6 
REMARK       I    between atoms: C_6  and  N_8 
REMARK    2  A    between atoms: N_8  and  C_9 
REMARK    3  A    between atoms: C_9  and  C_10 
REMARK    4  A    between atoms: C_10  and  C_11 
REMARK    5  A    between atoms: C_11  and  N_12 
ROOT
HETATM    1  N   UNL     1       5.266   2.928   0.293  1.00  0.00    -0.309 N 
HETATM    2  C   UNL     1       4.548   4.103   0.237  1.00  0.00     0.320 C 
HETATM    3  O   UNL     1       3.487   4.333   0.802  1.00  0.00    -0.247 OA
HETATM    4  N   UNL     1       5.170   5.074  -0.515  1.00  0.00    -0.343 N 
HETATM    5  H   UNL     1       6.131   2.890  -0.227  1.00  0.00     0.170 HD
HETATM    6  H   UNL     1       5.731   4.758  -1.291  1.00  0.00     0.164 HD
ENDROOT
BRANCH   1   7
HETATM    7  C   UNL     1       4.910   1.783   1.044  1.00  0.00     0.039 A 
HETATM    8  C   UNL     1       3.794   1.745   1.879  1.00  0.00     0.054 A 
HETATM    9  C   UNL     1       3.482   0.584   2.572  1.00  0.00     0.007 A 
HETATM   10  C   UNL     1       2.247   0.541   3.422  1.00  0.00     0.068 C 
HETATM   11  N   UNL     1       4.237  -0.531   2.486  1.00  0.00    -0.369 N 
HETATM   12  C   UNL     1       5.325  -0.476   1.688  1.00  0.00     0.090 A 
ATOM     13  HN  UNL     1       3.997  -1.378   3.001  1.00  0.00     0.165 HD
HETATM   14  C   UNL     1       5.701   0.641   0.955  1.00  0.00     0.046 A 
ENDBRANCH   1   7
BRANCH   4  15
HETATM   15  C   UNL     1       4.514   6.369  -0.647  1.00  0.00     0.126 C 
BRANCH  15  16
HETATM   16  C   UNL     1       5.532   7.461  -0.919  1.00  0.00     0.050 C 
BRANCH  16  17
HETATM   17  C   UNL     1       4.918   8.871  -0.876  1.00  0.00     0.274 C 
BRANCH  17  18
HETATM   18  N   UNL     1       5.937   9.882  -1.189  1.00  0.00     0.092 N 
HETATM   19  C   UNL     1       6.988  10.016  -0.156  1.00  0.00     0.298 C 
HETATM   20  C   UNL     1       6.570  10.845   1.065  1.00  0.00     0.198 C 
HETATM   21  O   UNL     1       6.182  12.162   0.664  1.00  0.00    -0.388 OA
HETATM   22  C   UNL     1       5.069  12.094  -0.234  1.00  0.00     0.198 C 
HETATM   23  C   UNL     1       5.368  11.219  -1.468  1.00  0.00     0.298 C 
ENDBRANCH  17  18
ENDBRANCH  16  17
ENDBRANCH  15  16
ENDBRANCH   4  15
TORSDOF 5
