REMARK  8 active torsions:
REMARK  status: ('A' for Active; 'I' for Inactive)
REMARK    1  A    between atoms: N_6  and  C_7 
REMARK    2  A    between atoms: C_7  and  C_8 
REMARK    3  A    between atoms: C_8  and  N_9 
REMARK    4  A    between atoms: N_9  and  C_10 
REMARK    5  A    between atoms: C_10  and  C_11 
REMARK    6  A    between atoms: N_21  and  C_22 
REMARK    7  A    between atoms: C_22  and  C_23 
REMARK    8  A    between atoms: C_23  and  O_24 
ROOT
HETATM    1  C   UNL     1       7.190  -6.320   0.146  1.00  0.00     0.113 A 
HETATM    2  N   UNL     1       7.474  -7.121   1.154  1.00  0.00    -0.342 N 
ATOM      3  HN  UNL     1       6.935  -7.247   2.011  1.00  0.00     0.167 HD
HETATM    4  C   UNL     1       8.640  -7.747   0.814  1.00  0.00     0.062 A 
HETATM    5  C   UNL     1       9.357  -8.716   1.528  1.00  0.00     0.055 A 
HETATM    6  C   UNL     1      10.537  -9.206   0.968  1.00  0.00     0.036 A 
HETATM    7 CL   UNL     1      11.443 -10.394   1.826  1.00  0.00    -0.084 Cl
HETATM    8  C   UNL     1      10.998  -8.750  -0.268  1.00  0.00     0.026 A 
HETATM    9  C   UNL     1      10.289  -7.782  -0.993  1.00  0.00     0.034 A 
HETATM   10  C   UNL     1       9.105  -7.302  -0.421  1.00  0.00     0.062 A 
HETATM   11  N   UNL     1       8.163  -6.380  -0.828  1.00  0.00    -0.331 N 
ENDROOT
BRANCH   1  12
HETATM   12  C   UNL     1       5.978  -5.448   0.083  1.00  0.00     0.345 C 
BRANCH  12  13
HETATM   13  N   UNL     1       6.372  -4.038   0.130  1.00  0.00     0.092 N 
HETATM   14  H   UNL     1       6.880  -3.883   1.003  1.00  0.00     0.316 HD
BRANCH  13  15
HETATM   15  C   UNL     1       5.213  -3.141   0.058  1.00  0.00     0.291 C 
BRANCH  15  16
HETATM   16  C   UNL     1       4.282  -3.224   1.268  1.00  0.00     0.178 C 
BRANCH  16  17
HETATM   17  N   UNL     1       3.178  -2.296   1.147  1.00  0.00    -0.302 N 
HETATM   18  N   UNL     1       2.054  -2.680   0.519  1.00  0.00    -0.310 N 
HETATM   19  C   UNL     1       1.258  -1.615   0.627  1.00  0.00     0.115 A 
ATOM     20  HN  UNL     1       1.856  -3.573   0.067  1.00  0.00     0.186 HD
HETATM   21  C   UNL     1       1.878  -0.541   1.306  1.00  0.00    -0.028 A 
HETATM   22  C   UNL     1       1.321   0.793   1.611  1.00  0.00     0.051 C 
HETATM   23  C   UNL     1       3.130  -1.021   1.625  1.00  0.00     0.118 A 
ENDBRANCH  16  17
ENDBRANCH  15  16
ENDBRANCH  13  15
ENDBRANCH  12  13
ENDBRANCH   1  12
BRANCH  11  24
HETATM   24  C   UNL     1       8.161  -5.664  -2.094  1.00  0.00     0.156 C 
BRANCH  24  25
HETATM   25  C   UNL     1       8.837  -4.296  -2.039  1.00  0.00     0.184 C 
BRANCH  25  26
HETATM   26  O   UNL     1      10.236  -4.406  -1.794  1.00  0.00    -0.399 OA
HETATM   27  H   UNL     1      10.345  -4.551  -0.835  1.00  0.00     0.209 HD
ENDBRANCH  25  26
ENDBRANCH  24  25
ENDBRANCH  11  24
TORSDOF 8
