REMARK  6 active torsions:
REMARK  status: ('A' for Active; 'I' for Inactive)
REMARK    1  A    between atoms: O_1  and  C_2 
REMARK    2  A    between atoms: C_2  and  C_3 
REMARK    3  A    between atoms: C_2  and  C_11 
REMARK    4  A    between atoms: C_3  and  O_4 
REMARK    5  A    between atoms: O_4  and  C_5 
REMARK    6  A    between atoms: C_11  and  N_12 
ROOT
HETATM    1  C   UNL     1       2.467  -0.049  -0.019  1.00  0.00     0.160 C 
ENDROOT
BRANCH   1   2
HETATM    2  O   UNL     1       1.036  -0.145   0.049  1.00  0.00    -0.392 OA
HETATM    3  H   UNL     1       0.666   0.374  -0.688  1.00  0.00     0.210 HD
ENDBRANCH   1   2
BRANCH   1   4
HETATM    4  C   UNL     1       2.843   1.417   0.237  1.00  0.00     0.209 C 
BRANCH   4   5
HETATM    5  O   UNL     1       4.254   1.627   0.208  1.00  0.00    -0.349 OA
BRANCH   5   6
HETATM    6  C   UNL     1       4.637   2.917   0.490  1.00  0.00     0.068 A 
HETATM    7  C   UNL     1       5.899   3.071   1.065  1.00  0.00     0.037 A 
HETATM    8  C   UNL     1       6.375   4.344   1.397  1.00  0.00     0.003 A 
HETATM    9  C   UNL     1       5.598   5.471   1.139  1.00  0.00     0.000 A 
HETATM   10  C   UNL     1       4.349   5.327   0.541  1.00  0.00     0.003 A 
HETATM   11  C   UNL     1       3.872   4.056   0.213  1.00  0.00     0.037 A 
ENDBRANCH   5   6
ENDBRANCH   4   5
ENDBRANCH   1   4
BRANCH   1  12
HETATM   12  C   UNL     1       3.089  -0.995   1.011  1.00  0.00     0.164 C 
BRANCH  12  13
HETATM   13  N   UNL     1       2.736  -2.385   0.780  1.00  0.00    -0.339 N 
HETATM   14  C   UNL     1       1.718  -3.047   1.409  1.00  0.00     0.184 A 
HETATM   15  N   UNL     1       1.690  -4.322   1.093  1.00  0.00    -0.350 N 
HETATM   16  C   UNL     1       2.704  -4.483   0.182  1.00  0.00     0.060 A 
ATOM     17  HN  UNL     1       1.054  -5.036   1.447  1.00  0.00     0.166 HD
HETATM   18  C   UNL     1       3.116  -5.642  -0.493  1.00  0.00     0.032 A 
HETATM   19  C   UNL     1       3.367  -3.279  -0.054  1.00  0.00     0.062 A 
HETATM   20  C   UNL     1       4.166  -5.551  -1.413  1.00  0.00     0.002 A 
HETATM   21  C   UNL     1       4.801  -4.331  -1.650  1.00  0.00     0.002 A 
HETATM   22  C   UNL     1       4.422  -3.167  -0.968  1.00  0.00     0.032 A 
ENDBRANCH  12  13
ENDBRANCH   1  12
TORSDOF 6
