REMARK  2 active torsions:
REMARK  status: ('A' for Active; 'I' for Inactive)
REMARK    1  A    between atoms: O_1  and  C_2 
REMARK    2  A    between atoms: C_6  and  C_7 
ROOT
HETATM    1  C   UNL     1       2.427  -0.112  -0.057  1.00  0.00     0.126 C 
HETATM    2  C   UNL     1       3.063  -1.406   0.451  1.00  0.00     0.032 C 
HETATM    3  C   UNL     1       4.214  -0.977   1.360  1.00  0.00     0.003 C 
HETATM    4  C   UNL     1       4.286   0.546   1.265  1.00  0.00     0.012 C 
HETATM    5  C   UNL     1       2.856   0.990   0.931  1.00  0.00     0.049 C 
ENDROOT
BRANCH   5   6
HETATM    6  C   UNL     1       2.021   1.221   2.176  1.00  0.00    -0.036 A 
HETATM    7  C   UNL     1       1.232   0.249   2.794  1.00  0.00     0.010 A 
HETATM    8  C   UNL     1       0.475   0.569   3.919  1.00  0.00     0.018 A 
HETATM    9  C   UNL     1       0.536   1.861   4.407  1.00  0.00     0.087 A 
HETATM   10  N   UNL     1       1.298   2.829   3.861  1.00  0.00    -0.375 N 
HETATM   11  C   UNL     1       2.015   2.487   2.765  1.00  0.00     0.095 A 
ATOM     12  HN  UNL     1       1.333   3.770   4.253  1.00  0.00     0.164 HD
ENDBRANCH   5   6
BRANCH   1  13
HETATM   13  O   UNL     1       1.028  -0.217  -0.230  1.00  0.00    -0.395 OA
HETATM   14  H   UNL     1       0.857  -0.958  -0.834  1.00  0.00     0.210 HD
ENDBRANCH   1  13
TORSDOF 2
