REMARK  5 active torsions:
REMARK  status: ('A' for Active; 'I' for Inactive)
REMARK    1  A    between atoms: S_2  and  C_3 
REMARK    2  A    between atoms: C_3  and  C_5 
REMARK       I    between atoms: C_5  and  N_7 
REMARK    3  A    between atoms: N_7  and  C_8 
REMARK    4  A    between atoms: C_8  and  C_9 
REMARK    5  A    between atoms: C_12  and  N_16 
ROOT
HETATM    1  C   UNL     1       7.614   4.466   0.715  1.00  0.00    -0.025 A 
HETATM    2  C   UNL     1       6.718   5.530   0.711  1.00  0.00     0.014 A 
HETATM    3  C   UNL     1       7.210   6.828   0.725  1.00  0.00     0.049 A 
HETATM    4  C   UNL     1       8.588   7.069   0.758  1.00  0.00     0.103 A 
HETATM    5  N   UNL     1       9.465   6.053   0.854  1.00  0.00    -0.352 N 
ATOM      6  HN  UNL     1      10.466   6.225   0.949  1.00  0.00     0.166 HD
HETATM    7  C   UNL     1       8.965   4.786   0.820  1.00  0.00     0.098 A 
ENDROOT
BRANCH   1   8
HETATM    8  C   UNL     1       7.129   3.058   0.550  1.00  0.00     0.162 C 
BRANCH   8   9
HETATM    9  N   UNL     1       6.813   2.398   1.791  1.00  0.00    -0.356 N 
HETATM   10  C   UNL     1       6.240   1.137   1.757  1.00  0.00     0.231 C 
HETATM   11  O   UNL     1       6.056   0.533   0.703  1.00  0.00    -0.272 OA
HETATM   12  H   UNL     1       6.741   2.937   2.647  1.00  0.00     0.162 HD
BRANCH  10  13
HETATM   13  C   UNL     1       5.886   0.553   3.128  1.00  0.00     0.134 C 
HETATM   14  C   UNL     1       5.448  -0.906   3.036  1.00  0.00     0.031 C 
BRANCH  13  15
HETATM   15  S   UNL     1       4.622   1.596   3.968  1.00  0.00    -0.160 SA
HETATM   16  C   UNL     1       3.225   1.422   2.823  1.00  0.00     0.090 C 
ENDBRANCH  13  15
ENDBRANCH  10  13
ENDBRANCH   8   9
ENDBRANCH   1   8
BRANCH   4  17
HETATM   17  N   UNL     1       9.001   8.394   0.686  1.00  0.00    -0.362 N 
HETATM   18  C   UNL     1      10.312   8.789   1.224  1.00  0.00     0.156 C 
HETATM   19  C   UNL     1      10.261  10.335   1.413  1.00  0.00     0.136 C 
HETATM   20  C   UNL     1      11.571  10.906   1.929  1.00  0.00     0.041 C 
HETATM   21  O   UNL     1       9.951  11.016   0.170  1.00  0.00    -0.378 OA
HETATM   22  C   UNL     1       8.693  10.555  -0.366  1.00  0.00     0.136 C 
HETATM   23  C   UNL     1       8.397  11.315  -1.648  1.00  0.00     0.041 C 
HETATM   24  C   UNL     1       8.745   9.037  -0.616  1.00  0.00     0.156 C 
ENDBRANCH   4  17
TORSDOF 5
