REMARK  2 active torsions:
REMARK  status: ('A' for Active; 'I' for Inactive)
REMARK    1  A    between atoms: C_6  and  N_7 
REMARK    2  A    between atoms: N_7  and  C_8 
ROOT
HETATM    1  N   UNL     1       1.106   0.123  -0.041  1.00  0.00    -0.191 NA
HETATM    2  C   UNL     1       2.268   0.160  -0.063  1.00  0.00     0.101 C 
HETATM    3  C   UNL     1       3.696   0.200  -0.088  1.00  0.00     0.060 A 
HETATM    4  C   UNL     1       4.415   1.321   0.329  1.00  0.00     0.028 A 
HETATM    5  C   UNL     1       5.817   1.302   0.284  1.00  0.00     0.050 A 
HETATM    6  C   UNL     1       6.460   0.161  -0.161  1.00  0.00     0.101 A 
HETATM    7  N   UNL     1       5.771  -0.930  -0.556  1.00  0.00    -0.351 N 
ATOM      8  HN  UNL     1       6.259  -1.767  -0.874  1.00  0.00     0.166 HD
HETATM    9  C   UNL     1       4.418  -0.891  -0.521  1.00  0.00     0.112 A 
ENDROOT
BRANCH   6  10
HETATM   10  N   UNL     1       7.803  -0.035  -0.182  1.00  0.00    -0.369 N 
HETATM   11  H   UNL     1       7.946  -1.001  -0.470  1.00  0.00     0.161 HD
BRANCH  10  12
HETATM   12  C   UNL     1       8.896   0.860  -0.528  1.00  0.00     0.114 C 
HETATM   13  C   UNL     1       8.615   2.122  -1.353  1.00  0.00     0.059 C 
HETATM   14  C   UNL     1       9.621   1.999  -2.510  1.00  0.00     0.124 C 
HETATM   15  C   UNL     1       9.124   0.990  -3.537  1.00  0.00     0.034 C 
HETATM   16  O   UNL     1      10.707   1.261  -1.905  1.00  0.00    -0.378 OA
HETATM   17  C   UNL     1       9.266  -0.322  -2.768  1.00  0.00     0.036 C 
HETATM   18  C   UNL     1       9.911   0.142  -1.451  1.00  0.00     0.144 C 
ENDBRANCH  10  12
ENDBRANCH   6  10
TORSDOF 2
