REMARK  6 active torsions:
REMARK  status: ('A' for Active; 'I' for Inactive)
REMARK    1  A    between atoms: N_1  and  C_2 
REMARK    2  A    between atoms: C_5  and  S_6 
REMARK    3  A    between atoms: S_6  and  C_7 
REMARK    4  A    between atoms: C_7  and  C_8 
REMARK    5  A    between atoms: C_8  and  O_9 
REMARK    6  A    between atoms: O_9  and  C_10 
ROOT
HETATM    1  C   UNL     1       2.597   0.046   0.062  1.00  0.00     0.099 A 
HETATM    2  N   UNL     1       3.303  -1.107   0.114  1.00  0.00    -0.339 N 
ATOM      3  HN  UNL     1       2.838  -2.009   0.010  1.00  0.00     0.167 HD
HETATM    4  C   UNL     1       4.645  -1.035   0.308  1.00  0.00     0.092 A 
HETATM    5  C   UNL     1       5.321   0.180   0.446  1.00  0.00     0.079 A 
HETATM    6  C   UNL     1       6.743   0.269   0.624  1.00  0.00     0.102 C 
HETATM    7  N   UNL     1       7.888   0.386   0.767  1.00  0.00    -0.191 NA
HETATM    8  C   UNL     1       4.579   1.362   0.401  1.00  0.00     0.051 A 
HETATM    9  C   UNL     1       3.200   1.299   0.203  1.00  0.00     0.084 A 
HETATM   10  C   UNL     1       2.441   2.510   0.167  1.00  0.00     0.102 C 
HETATM   11  N   UNL     1       1.842   3.505   0.175  1.00  0.00    -0.191 NA
ENDROOT
BRANCH   4  12
HETATM   12  S   UNL     1       5.565  -2.559   0.406  1.00  0.00    -0.109 SA
BRANCH  12  13
HETATM   13  C   UNL     1       4.334  -3.895   0.146  1.00  0.00     0.107 C 
BRANCH  13  14
HETATM   14  C   UNL     1       5.182  -5.172   0.134  1.00  0.00     0.178 C 
BRANCH  14  15
HETATM   15  O   UNL     1       4.456  -6.373  -0.164  1.00  0.00    -0.385 OA
BRANCH  15  16
HETATM   16  C   UNL     1       5.311  -7.544  -0.072  1.00  0.00     0.121 C 
HETATM   17  C   UNL     1       6.359  -7.560  -1.200  1.00  0.00     0.032 C 
HETATM   18  C   UNL     1       7.512  -8.510  -0.906  1.00  0.00     0.002 C 
HETATM   19  C   UNL     1       7.312  -9.914  -1.454  1.00  0.00     0.000 C 
HETATM   20  C   UNL     1       5.902 -10.487  -1.334  1.00  0.00     0.000 C 
HETATM   21  C   UNL     1       5.164 -10.138  -0.041  1.00  0.00     0.002 C 
HETATM   22  C   UNL     1       4.419  -8.796  -0.096  1.00  0.00     0.032 C 
ENDBRANCH  15  16
ENDBRANCH  14  15
ENDBRANCH  13  14
ENDBRANCH  12  13
ENDBRANCH   4  12
BRANCH   1  23
HETATM   23  N   UNL     1       1.247  -0.091  -0.238  1.00  0.00    -0.287 NA
HETATM   24  H   UNL     1       0.998  -1.078  -0.238  1.00  0.00     0.125 HD
HETATM   25  H   UNL     1       0.620   0.470   0.329  1.00  0.00     0.125 HD
ENDBRANCH   1  23
TORSDOF 6
