REMARK  5 active torsions:
REMARK  status: ('A' for Active; 'I' for Inactive)
REMARK    1  A    between atoms: C_2  and  C_3 
REMARK    2  A    between atoms: C_2  and  N_16 
REMARK    3  A    between atoms: C_3  and  N_4 
REMARK       I    between atoms: N_4  and  C_5 
REMARK    4  A    between atoms: C_5  and  C_7 
REMARK    5  A    between atoms: C_7  and  N_9 
ROOT
HETATM    1  N   UNL     1       2.662   1.145   2.270  1.00  0.00    -0.357 N 
HETATM    2  C   UNL     1       3.626   2.132   2.340  1.00  0.00     0.242 C 
HETATM    3  O   UNL     1       4.674   2.076   1.699  1.00  0.00    -0.271 OA
HETATM    4  H   UNL     1       1.803   1.228   2.799  1.00  0.00     0.162 HD
ENDROOT
BRANCH   1   5
HETATM    5  C   UNL     1       2.875  -0.065   1.484  1.00  0.00     0.158 C 
BRANCH   5   6
HETATM    6  C   UNL     1       2.561   0.091  -0.041  1.00  0.00     0.236 C 
HETATM    7  C   UNL     1       1.038   0.316  -0.166  1.00  0.00     0.044 C 
BRANCH   6   8
HETATM    8  N   UNL     1       2.995  -1.102  -0.825  1.00  0.00     0.098 N 
HETATM    9  C   UNL     1       4.459  -1.361  -0.747  1.00  0.00     0.299 C 
HETATM   10  C   UNL     1       5.313  -0.355  -1.536  1.00  0.00     0.198 C 
HETATM   11  O   UNL     1       4.956  -0.370  -2.923  1.00  0.00    -0.388 OA
HETATM   12  C   UNL     1       3.565  -0.076  -3.092  1.00  0.00     0.198 C 
HETATM   13  C   UNL     1       2.675  -1.036  -2.277  1.00  0.00     0.299 C 
ENDBRANCH   6   8
ENDBRANCH   5   6
ENDBRANCH   1   5
BRANCH   2  14
HETATM   14  C   UNL     1       3.277   3.316   3.233  1.00  0.00     0.196 C 
HETATM   15  C   UNL     1       4.521   3.884   3.911  1.00  0.00     0.044 C 
BRANCH  14  16
HETATM   16  N   UNL     1       2.599   4.324   2.439  1.00  0.00    -0.273 N 
HETATM   17  C   UNL     1       3.056   4.975   1.333  1.00  0.00     0.202 A 
HETATM   18  N   UNL     1       2.143   5.820   0.915  1.00  0.00    -0.346 N 
HETATM   19  C   UNL     1       1.128   5.646   1.810  1.00  0.00     0.198 A 
ATOM     20  HN  UNL     1       2.183   6.453   0.116  1.00  0.00     0.167 HD
HETATM   21  N   UNL     1       1.356   4.733   2.759  1.00  0.00    -0.292 N 
ATOM     22  HN  UNL     1       0.751   4.428   3.521  1.00  0.00     0.188 HD
ENDBRANCH  14  16
ENDBRANCH   2  14
TORSDOF 5
