REMARK  4 active torsions:
REMARK  status: ('A' for Active; 'I' for Inactive)
REMARK    1  A    between atoms: C_5  and  C_6 
REMARK    2  A    between atoms: C_6  and  C_7 
REMARK    3  A    between atoms: C_7  and  N_8 
REMARK       I    between atoms: N_8  and  C_9 
REMARK    4  A    between atoms: C_9  and  C_11 
ROOT
HETATM    1  N   UNL     1       8.188   1.696   0.005  1.00  0.00    -0.359 N 
HETATM    2  C   UNL     1       8.656   2.148   1.218  1.00  0.00     0.242 C 
HETATM    3  O   UNL     1       8.125   1.861   2.290  1.00  0.00    -0.271 OA
HETATM    4  H   UNL     1       8.394   2.286  -0.799  1.00  0.00     0.162 HD
ENDROOT
BRANCH   1   5
HETATM    5  C   UNL     1       7.015   0.841  -0.089  1.00  0.00     0.128 C 
BRANCH   5   6
HETATM    6  C   UNL     1       5.684   1.595  -0.078  1.00  0.00     0.077 C 
BRANCH   6   7
HETATM    7  C   UNL     1       5.473   2.410  -1.316  1.00  0.00     0.018 A 
HETATM    8  N   UNL     1       6.339   3.460  -1.577  1.00  0.00    -0.357 N 
HETATM    9  C   UNL     1       5.985   4.075  -2.685  1.00  0.00     0.046 A 
ATOM     10  HN  UNL     1       7.135   3.719  -0.995  1.00  0.00     0.166 HD
HETATM   11  C   UNL     1       6.687   5.260  -3.248  1.00  0.00     0.076 C 
HETATM   12  S   UNL     1       4.616   3.421  -3.490  1.00  0.00    -0.087 SA
HETATM   13  C   UNL     1       4.474   2.238  -2.256  1.00  0.00     0.076 A 
ENDBRANCH   6   7
ENDBRANCH   5   6
ENDBRANCH   1   5
BRANCH   2  14
HETATM   14  C   UNL     1       9.933   2.984   1.160  1.00  0.00     0.196 C 
HETATM   15  C   UNL     1       9.729   4.372   1.754  1.00  0.00     0.159 C 
HETATM   16  N   UNL     1      10.671   5.175   1.016  1.00  0.00    -0.341 N 
HETATM   17  C   UNL     1      11.086   4.526  -0.130  1.00  0.00     0.316 C 
HETATM   18  H   UNL     1      10.932   6.134   1.203  1.00  0.00     0.164 HD
HETATM   19  O   UNL     1      11.854   4.962  -0.965  1.00  0.00    -0.247 OA
HETATM   20  N   UNL     1      10.499   3.271  -0.147  1.00  0.00    -0.328 N 
HETATM   21  H   UNL     1      10.906   2.572  -0.754  1.00  0.00     0.165 HD
ENDBRANCH   2  14
TORSDOF 4
