REMARK  5 active torsions:
REMARK  status: ('A' for Active; 'I' for Inactive)
REMARK    1  A    between atoms: C_2  and  C_3 
REMARK    2  A    between atoms: C_3  and  N_4 
REMARK    3  A    between atoms: C_3  and  C_16 
REMARK       I    between atoms: N_4  and  C_5 
REMARK    4  A    between atoms: C_5  and  C_7 
REMARK    5  A    between atoms: C_7  and  N_8 
ROOT
HETATM    1  N   UNL     1       2.430  -2.193   1.148  1.00  0.00    -0.354 N 
HETATM    2  C   UNL     1       1.281  -2.532   1.833  1.00  0.00     0.236 C 
HETATM    3  O   UNL     1       0.705  -1.769   2.610  1.00  0.00    -0.272 OA
HETATM    4  H   UNL     1       2.839  -2.877   0.520  1.00  0.00     0.162 HD
ENDROOT
BRANCH   1   5
HETATM    5  C   UNL     1       2.989  -0.837   1.183  1.00  0.00     0.092 C 
BRANCH   5   6
HETATM    6  C   UNL     1       2.400   0.014   0.028  1.00  0.00     0.021 C 
HETATM    7  C   UNL     1       0.893   0.227   0.090  1.00  0.00     0.007 C 
ENDBRANCH   5   6
BRANCH   5   8
HETATM    8  C   UNL     1       4.564  -0.850   1.194  1.00  0.00    -0.019 C 
HETATM    9  C   UNL     1       5.110   0.587   1.455  1.00  0.00     0.016 C 
HETATM   10  C   UNL     1       6.646   0.610   1.486  1.00  0.00    -0.013 C 
HETATM   11  C   UNL     1       7.182   0.103   0.140  1.00  0.00     0.009 C 
HETATM   12  C   UNL     1       7.143  -0.299   2.615  1.00  0.00     0.009 C 
HETATM   13  C   UNL     1       6.705  -1.338  -0.106  1.00  0.00    -0.013 C 
HETATM   14  C   UNL     1       7.203  -2.237   1.033  1.00  0.00     0.009 C 
HETATM   15  C   UNL     1       5.166  -1.363  -0.143  1.00  0.00     0.016 C 
HETATM   16  C   UNL     1       6.653  -1.735   2.378  1.00  0.00    -0.013 C 
HETATM   17  C   UNL     1       5.111  -1.756   2.339  1.00  0.00     0.016 C 
ENDBRANCH   5   8
ENDBRANCH   1   5
BRANCH   2  18
HETATM   18  C   UNL     1       0.799  -3.969   1.633  1.00  0.00     0.235 C 
BRANCH  18  19
HETATM   19  N   UNL     1       1.365  -4.856   2.647  1.00  0.00    -0.301 N 
HETATM   20  C   UNL     1       0.960  -4.731   3.961  1.00  0.00     0.102 C 
HETATM   21  C   UNL     1       1.490  -5.472   4.937  1.00  0.00     0.092 C 
HETATM   22  C   UNL     1       2.521  -6.463   4.591  1.00  0.00     0.250 C 
HETATM   23  O   UNL     1       3.087  -7.118   5.457  1.00  0.00    -0.268 OA
HETATM   24  N   UNL     1       2.802  -6.589   3.261  1.00  0.00    -0.275 N 
HETATM   25  C   UNL     1       2.343  -5.764   2.268  1.00  0.00     0.329 C 
HETATM   26  H   UNL     1       3.520  -7.248   3.008  1.00  0.00     0.173 HD
HETATM   27  O   UNL     1       2.798  -5.844   1.128  1.00  0.00    -0.246 OA
ENDBRANCH  18  19
ENDBRANCH   2  18
TORSDOF 5
