REMARK  4 active torsions:
REMARK  status: ('A' for Active; 'I' for Inactive)
REMARK       I    between atoms: C_2  and  N_3 
REMARK       I    between atoms: C_2  and  N_14 
REMARK    1  A    between atoms: N_3  and  C_4 
REMARK    2  A    between atoms: C_4  and  C_5 
REMARK    3  A    between atoms: N_14  and  C_15 
REMARK    4  A    between atoms: C_21  and  N_22 
ROOT
HETATM    1  O   UNL     1       0.932  -0.035  -0.322  1.00  0.00    -0.247 OA
HETATM    2  C   UNL     1       2.129   0.179  -0.500  1.00  0.00     0.320 C 
HETATM    3  N   UNL     1       2.663   1.426  -0.547  1.00  0.00    -0.340 N 
HETATM    4  N   UNL     1       2.974  -0.883  -0.596  1.00  0.00    -0.306 N 
HETATM    5  H   UNL     1       3.662   1.516  -0.425  1.00  0.00     0.164 HD
HETATM    6  H   UNL     1       2.527  -1.706  -0.227  1.00  0.00     0.171 HD
ENDROOT
BRANCH   3   7
HETATM    7  C   UNL     1       1.844   2.603  -0.297  1.00  0.00     0.158 C 
BRANCH   7   8
HETATM    8  C   UNL     1       1.638   2.940   1.200  1.00  0.00     0.167 C 
HETATM    9  C   UNL     1       2.948   3.349   1.929  1.00  0.00     0.306 C 
HETATM   10  N   UNL     1       3.406   4.651   1.439  1.00  0.00     0.097 N 
HETATM   11  C   UNL     1       4.580   5.212   2.094  1.00  0.00     0.273 C 
HETATM   12  C   UNL     1       2.348   5.652   1.658  1.00  0.00     0.246 C 
HETATM   13  C   UNL     1       4.495   6.693   1.704  1.00  0.00     0.032 C 
HETATM   14  C   UNL     1       3.067   6.899   1.180  1.00  0.00     0.040 C 
HETATM   15  C   UNL     1       1.066   5.268   0.926  1.00  0.00     0.204 C 
HETATM   16  O   UNL     1       0.620   3.967   1.358  1.00  0.00    -0.380 OA
ENDBRANCH   7   8
ENDBRANCH   3   7
BRANCH   4  17
HETATM   17  C   UNL     1       4.378  -0.896  -0.684  1.00  0.00     0.080 A 
HETATM   18  C   UNL     1       4.968  -0.346  -1.832  1.00  0.00     0.035 A 
HETATM   19  C   UNL     1       6.345  -0.390  -1.993  1.00  0.00     0.019 A 
HETATM   20  C   UNL     1       7.089  -0.956  -0.979  1.00  0.00     0.090 A 
HETATM   21  N   UNL     1       6.545  -1.486   0.141  1.00  0.00    -0.351 N 
HETATM   22  C   UNL     1       5.197  -1.499   0.301  1.00  0.00     0.130 A 
ATOM     23  HN  UNL     1       7.148  -1.876   0.865  1.00  0.00     0.166 HD
BRANCH  22  24
HETATM   24  N   UNL     1       4.710  -2.020   1.494  1.00  0.00    -0.365 N 
HETATM   25  C   UNL     1       3.528  -2.875   1.557  1.00  0.00     0.124 C 
HETATM   26  C   UNL     1       3.716  -3.753   2.789  1.00  0.00     0.021 C 
HETATM   27  C   UNL     1       5.211  -3.758   3.026  1.00  0.00     0.021 C 
HETATM   28  C   UNL     1       5.666  -2.387   2.542  1.00  0.00     0.124 C 
ENDBRANCH  22  24
ENDBRANCH   4  17
TORSDOF 4
