REMARK  4 active torsions:
REMARK  status: ('A' for Active; 'I' for Inactive)
REMARK    1  A    between atoms: N_6  and  C_7 
REMARK    2  A    between atoms: C_7  and  C_8 
REMARK       I    between atoms: C_8  and  N_10 
REMARK    3  A    between atoms: N_10  and  C_11 
REMARK    4  A    between atoms: C_11  and  C_12 
ROOT
HETATM    1  C   UNL     1       6.965   0.035  -0.293  1.00  0.00     0.255 C 
ENDROOT
BRANCH   1   2
HETATM    2  N   UNL     1       7.798   1.151   0.159  1.00  0.00    -0.248 N 
HETATM    3  N   UNL     1       7.613   1.552   1.464  1.00  0.00    -0.305 N 
HETATM    4  C   UNL     1       8.260   2.601   1.854  1.00  0.00     0.133 A 
ATOM      5  HN  UNL     1       6.993   1.044   2.095  1.00  0.00     0.186 HD
HETATM    6  C   UNL     1       9.177   3.396   1.030  1.00  0.00     0.078 A 
HETATM    7 CL   UNL     1       9.920   4.751   1.773  1.00  0.00    -0.081 Cl
HETATM    8  C   UNL     1       9.359   2.997  -0.230  1.00  0.00     0.126 A 
HETATM    9  C   UNL     1       8.637   1.798  -0.744  1.00  0.00     0.285 A 
HETATM   10 CL   UNL     1      10.407   3.816  -1.333  1.00  0.00    -0.076 Cl
HETATM   11  O   UNL     1       8.796   1.406  -1.899  1.00  0.00    -0.265 OA
ENDBRANCH   1   2
BRANCH   1  12
HETATM   12  C   UNL     1       7.563  -1.358  -0.089  1.00  0.00     0.237 C 
HETATM   13  O   UNL     1       6.839  -2.353  -0.050  1.00  0.00    -0.272 OA
HETATM   14  N   UNL     1       8.933  -1.450  -0.081  1.00  0.00    -0.357 N 
HETATM   15  H   UNL     1       9.501  -0.616  -0.157  1.00  0.00     0.162 HD
BRANCH  14  16
HETATM   16  C   UNL     1       9.636  -2.718   0.034  1.00  0.00     0.154 C 
BRANCH  16  17
HETATM   17  C   UNL     1      10.555  -2.767   1.255  1.00  0.00     0.139 C 
HETATM   18  C   UNL     1       9.877  -2.514   2.595  1.00  0.00     0.035 C 
HETATM   19  C   UNL     1      10.889  -1.709   3.387  1.00  0.00     0.029 C 
HETATM   20  C   UNL     1      12.095  -1.604   2.479  1.00  0.00     0.168 C 
HETATM   21  O   UNL     1      11.587  -1.766   1.152  1.00  0.00    -0.384 OA
ENDBRANCH  16  17
ENDBRANCH  14  16
ENDBRANCH   1  12
TORSDOF 4
