REMARK  8 active torsions:
REMARK  status: ('A' for Active; 'I' for Inactive)
REMARK    1  A    between atoms: C_7  and  C_8 
REMARK    2  A    between atoms: C_8  and  O_9 
REMARK    3  A    between atoms: C_8  and  C_10 
REMARK    4  A    between atoms: C_10  and  N_11 
REMARK    5  A    between atoms: N_14  and  C_15 
REMARK    6  A    between atoms: C_15  and  C_16 
REMARK    7  A    between atoms: N_20  and  C_21 
REMARK    8  A    between atoms: C_21  and  C_22 
ROOT
HETATM    1  N   UNL     1       0.366  -3.715  -0.247  1.00  0.00    -0.248 N 
HETATM    2  C   UNL     1      -0.991  -3.623  -0.476  1.00  0.00     0.337 C 
HETATM    3  O   UNL     1      -1.515  -2.532  -0.726  1.00  0.00    -0.246 OA
HETATM    4  N   UNL     1      -1.707  -4.799  -0.466  1.00  0.00    -0.247 N 
HETATM    5  C   UNL     1      -1.125  -6.043  -0.332  1.00  0.00     0.337 C 
HETATM    6  O   UNL     1      -1.794  -7.080  -0.298  1.00  0.00    -0.246 OA
HETATM    7  N   UNL     1       0.256  -6.063  -0.243  1.00  0.00    -0.247 N 
HETATM    8  C   UNL     1       1.035  -4.924  -0.268  1.00  0.00     0.337 C 
HETATM    9  O   UNL     1       2.265  -4.984  -0.330  1.00  0.00    -0.246 OA
ENDROOT
BRANCH   1  10
HETATM   10  C   UNL     1       1.158  -2.468  -0.311  1.00  0.00     0.175 C 
BRANCH  10  11
HETATM   11  C   UNL     1       0.948  -1.489   0.877  1.00  0.00     0.170 C 
BRANCH  11  12
HETATM   12  C   UNL     1       1.893  -0.290   0.867  1.00  0.00    -0.022 A 
HETATM   13  C   UNL     1       1.888   0.723  -0.124  1.00  0.00    -0.053 A 
HETATM   14  C   UNL     1       0.973   0.718  -1.319  1.00  0.00     0.049 C 
HETATM   15  C   UNL     1       2.774   1.812  -0.002  1.00  0.00     0.007 A 
HETATM   16  C   UNL     1       3.647   1.919   1.078  1.00  0.00     0.001 A 
HETATM   17  C   UNL     1       3.655   0.933   2.054  1.00  0.00     0.001 A 
HETATM   18  C   UNL     1       2.789  -0.157   1.950  1.00  0.00     0.010 A 
ENDBRANCH  11  12
BRANCH  11  19
HETATM   19  O   UNL     1      -0.373  -0.966   1.008  1.00  0.00    -0.389 OA
HETATM   20  H   UNL     1      -0.891  -1.218   0.218  1.00  0.00     0.210 HD
ENDBRANCH  11  19
ENDBRANCH  10  11
ENDBRANCH   1  10
BRANCH   4  21
HETATM   21  C   UNL     1      -3.145  -4.732  -0.699  1.00  0.00     0.165 C 
BRANCH  21  22
HETATM   22  C   UNL     1      -3.893  -4.790   0.604  1.00  0.00    -0.017 C 
HETATM   23  C   UNL     1      -4.382  -3.725   1.254  1.00  0.00     0.008 C 
ENDBRANCH  21  22
ENDBRANCH   4  21
BRANCH   7  24
HETATM   24  C   UNL     1       0.925  -7.350  -0.076  1.00  0.00     0.165 C 
BRANCH  24  25
HETATM   25  C   UNL     1       1.282  -7.970  -1.401  1.00  0.00    -0.017 C 
HETATM   26  C   UNL     1       0.943  -9.214  -1.763  1.00  0.00     0.008 C 
ENDBRANCH  24  25
ENDBRANCH   7  24
TORSDOF 8
