REMARK  7 active torsions:
REMARK  status: ('A' for Active; 'I' for Inactive)
REMARK    1  A    between atoms: O_2  and  C_3 
REMARK    2  A    between atoms: C_3  and  C_4 
REMARK    3  A    between atoms: C_4  and  O_5 
REMARK    4  A    between atoms: O_5  and  C_6 
REMARK    5  A    between atoms: C_9  and  C_10 
REMARK    6  A    between atoms: C_10  and  N_11 
REMARK       I    between atoms: N_11  and  C_12 
REMARK    7  A    between atoms: C_12  and  C_14 
REMARK       I    between atoms: N_18  and  C_19 
ROOT
HETATM    1  C   UNL     1      10.296  -3.730  -0.638  1.00  0.00     0.162 C 
ENDROOT
BRANCH   1   2
HETATM    2  C   UNL     1       8.864  -3.456  -0.307  1.00  0.00    -0.025 A 
HETATM    3  C   UNL     1       8.431  -3.324   1.014  1.00  0.00     0.014 A 
HETATM    4  C   UNL     1       7.109  -2.973   1.273  1.00  0.00     0.057 A 
HETATM    5  C   UNL     1       6.253  -2.799   0.200  1.00  0.00     0.141 A 
HETATM    6  N   UNL     1       6.630  -2.949  -1.087  1.00  0.00    -0.346 N 
HETATM    7  C   UNL     1       7.922  -3.270  -1.313  1.00  0.00     0.099 A 
ATOM      8  HN  UNL     1       5.969  -2.826  -1.854  1.00  0.00     0.167 HD
BRANCH   5   9
HETATM    9  O   UNL     1       4.967  -2.390   0.492  1.00  0.00    -0.334 OA
BRANCH   9  10
HETATM   10  C   UNL     1       4.062  -2.641  -0.586  1.00  0.00     0.203 C 
BRANCH  10  11
HETATM   11  C   UNL     1       2.694  -2.064  -0.237  1.00  0.00     0.193 C 
BRANCH  11  12
HETATM   12  O   UNL     1       1.767  -2.425  -1.262  1.00  0.00    -0.394 OA
HETATM   13  C   UNL     1       0.469  -1.909  -1.011  1.00  0.00     0.201 C 
ENDBRANCH  11  12
ENDBRANCH  10  11
ENDBRANCH   9  10
ENDBRANCH   5   9
ENDBRANCH   1   2
BRANCH   1  14
HETATM   14  N   UNL     1      10.606  -5.135  -0.762  1.00  0.00    -0.355 N 
HETATM   15  C   UNL     1      11.885  -5.478  -1.136  1.00  0.00     0.240 C 
HETATM   16  O   UNL     1      12.705  -4.628  -1.488  1.00  0.00    -0.271 OA
HETATM   17  H   UNL     1      10.002  -5.835  -0.347  1.00  0.00     0.162 HD
BRANCH  15  18
HETATM   18  C   UNL     1      12.225  -6.969  -1.240  1.00  0.00     0.179 C 
HETATM   19  C   UNL     1      11.497  -7.554  -2.465  1.00  0.00     0.037 C 
HETATM   20  C   UNL     1      11.486  -9.068  -2.246  1.00  0.00     0.022 C 
HETATM   21  C   UNL     1      12.021  -9.262  -0.838  1.00  0.00     0.127 C 
HETATM   22  N   UNL     1      11.896  -7.956  -0.208  1.00  0.00    -0.339 N 
HETATM   23  C   UNL     1      12.299  -7.898   1.121  1.00  0.00     0.216 C 
HETATM   24  O   UNL     1      12.682  -8.894   1.735  1.00  0.00    -0.274 OA
HETATM   25  C   UNL     1      12.064  -6.610   1.861  1.00  0.00     0.117 C 
ENDBRANCH  15  18
ENDBRANCH   1  14
TORSDOF 7
