REMARK  4 active torsions:
REMARK  status: ('A' for Active; 'I' for Inactive)
REMARK    1  A    between atoms: N_1  and  C_2 
REMARK    2  A    between atoms: C_2  and  C_3 
REMARK    3  A    between atoms: C_8  and  O_9 
REMARK    4  A    between atoms: O_9  and  C_10 
ROOT
HETATM    1  C   UNL     1       2.921  -0.120   1.457  1.00  0.00    -0.025 A 
HETATM    2  C   UNL     1       3.269   1.004   2.214  1.00  0.00     0.026 A 
HETATM    3  C   UNL     1       3.850   0.818   3.458  1.00  0.00     0.090 A 
HETATM    4  N   UNL     1       4.120  -0.395   3.988  1.00  0.00    -0.347 N 
ATOM      5  HN  UNL     1       4.550  -0.497   4.907  1.00  0.00     0.167 HD
HETATM    6  C   UNL     1       3.790  -1.463   3.236  1.00  0.00     0.142 A 
HETATM    7  C   UNL     1       3.174  -1.382   1.998  1.00  0.00     0.065 A 
ENDROOT
BRANCH   6   8
HETATM    8  O   UNL     1       4.064  -2.730   3.706  1.00  0.00    -0.328 OA
BRANCH   8   9
HETATM    9  C   UNL     1       5.132  -2.760   4.647  1.00  0.00     0.156 C 
HETATM   10  C   UNL     1       5.733  -4.150   4.669  1.00  0.00     0.061 C 
HETATM   11  C   UNL     1       6.273  -4.293   6.076  1.00  0.00     0.170 C 
HETATM   12  O   UNL     1       5.660  -3.283   6.887  1.00  0.00    -0.389 OA
HETATM   13  C   UNL     1       4.680  -2.606   6.089  1.00  0.00     0.200 C 
ENDBRANCH   8   9
ENDBRANCH   6   8
BRANCH   1  14
HETATM   14  C   UNL     1       2.314   0.036   0.090  1.00  0.00     0.305 C 
BRANCH  14  15
HETATM   15  N   UNL     1       3.237   0.708  -0.816  1.00  0.00     0.082 N 
HETATM   16  H   UNL     1       2.829   0.735  -1.750  1.00  0.00     0.313 HD
HETATM   17  H   UNL     1       4.088   0.154  -0.894  1.00  0.00     0.313 HD
ENDBRANCH  14  15
ENDBRANCH   1  14
TORSDOF 4
