REMARK  6 active torsions:
REMARK  status: ('A' for Active; 'I' for Inactive)
REMARK    1  A    between atoms: O_1  and  C_2 
REMARK    2  A    between atoms: C_2  and  C_3 
REMARK    3  A    between atoms: N_12  and  C_13 
REMARK    4  A    between atoms: C_13  and  C_14 
REMARK    5  A    between atoms: C_14  and  O_15 
REMARK    6  A    between atoms: O_15  and  C_16 
ROOT
HETATM    1  C   UNL     1       2.813  -1.113  -1.031  1.00  0.00     0.108 A 
HETATM    2  N   UNL     1       3.435  -0.894  -2.176  1.00  0.00    -0.342 N 
ATOM      3  HN  UNL     1       3.754   0.004  -2.538  1.00  0.00     0.167 HD
HETATM    4  C   UNL     1       3.564  -2.117  -2.778  1.00  0.00     0.060 A 
HETATM    5  C   UNL     1       4.138  -2.438  -4.017  1.00  0.00     0.032 A 
HETATM    6  C   UNL     1       4.137  -3.773  -4.436  1.00  0.00     0.002 A 
HETATM    7  C   UNL     1       3.575  -4.767  -3.635  1.00  0.00     0.002 A 
HETATM    8  C   UNL     1       3.005  -4.465  -2.390  1.00  0.00     0.032 A 
HETATM    9  C   UNL     1       3.023  -3.122  -1.985  1.00  0.00     0.062 A 
HETATM   10  N   UNL     1       2.575  -2.465  -0.861  1.00  0.00    -0.331 N 
ENDROOT
BRANCH  10  11
HETATM   11  C   UNL     1       1.923  -3.091   0.278  1.00  0.00     0.157 C 
BRANCH  11  12
HETATM   12  C   UNL     1       0.414  -3.150   0.083  1.00  0.00     0.196 C 
BRANCH  12  13
HETATM   13  O   UNL     1      -0.237  -3.637   1.262  1.00  0.00    -0.348 OA
BRANCH  13  14
HETATM   14  C   UNL     1      -1.613  -3.659   1.176  1.00  0.00     0.090 A 
HETATM   15  C   UNL     1      -2.350  -2.714   0.445  1.00  0.00     0.038 A 
HETATM   16  C   UNL     1      -3.741  -2.794   0.366  1.00  0.00     0.003 A 
HETATM   17  C   UNL     1      -4.420  -3.803   1.040  1.00  0.00     0.002 A 
HETATM   18  C   UNL     1      -3.708  -4.724   1.809  1.00  0.00     0.026 A 
HETATM   19  C   UNL     1      -2.311  -4.649   1.884  1.00  0.00     0.067 A 
HETATM   20 CL   UNL     1      -1.488  -5.818   2.855  1.00  0.00    -0.081 Cl
ENDBRANCH  13  14
ENDBRANCH  12  13
ENDBRANCH  11  12
ENDBRANCH  10  11
BRANCH   1  21
HETATM   21  C   UNL     1       2.444  -0.047  -0.057  1.00  0.00     0.240 C 
BRANCH  21  22
HETATM   22  O   UNL     1       1.027  -0.022   0.065  1.00  0.00    -0.393 OA
HETATM   23  H   UNL     1       0.801   0.837   0.458  1.00  0.00     0.209 HD
ENDBRANCH  21  22
ENDBRANCH   1  21
TORSDOF 6
