REMARK  9 active torsions:
REMARK  status: ('A' for Active; 'I' for Inactive)
REMARK    1  A    between atoms: N_2  and  C_9 
REMARK    2  A    between atoms: C_4  and  N_5 
REMARK    3  A    between atoms: C_14  and  C_25 
REMARK    4  A    between atoms: C_15  and  C_22 
REMARK    5  A    between atoms: C_15  and  C_23 
REMARK    6  A    between atoms: C_21  and  O_24 
REMARK    7  A    between atoms: C_22  and  O_27 
REMARK    8  A    between atoms: C_23  and  O_26 
REMARK    9  A    between atoms: C_25  and  O_28 
ROOT
HETATM    1  C   UNL     1       0.385  -0.681  -0.001  1.00  0.00     0.122 A 
HETATM    2  N   UNL     1       1.609   1.122  -0.019  1.00  0.00    -0.322 N 
HETATM    3  C   UNL     1       0.299   0.710  -0.036  1.00  0.00     0.140 A 
HETATM    4  C   UNL     1      -0.818  -1.431   0.007  1.00  0.00     0.136 A 
HETATM    5  N   UNL     1       1.705  -1.096   0.053  1.00  0.00    -0.346 N 
ATOM      6  HN  UNL     1       2.055  -2.053   0.109  1.00  0.00     0.167 HD
HETATM    7  C   UNL     1       2.402   0.005   0.017  1.00  0.00     0.185 A 
HETATM    8  N   UNL     1      -0.830   1.444  -0.066  1.00  0.00    -0.336 N 
ATOM      9  HN  UNL     1      -0.861   2.464  -0.071  1.00  0.00     0.168 HD
HETATM   10  N   UNL     1      -1.969  -0.709  -0.079  1.00  0.00    -0.337 N 
ATOM     11  HN  UNL     1      -2.869  -1.185  -0.136  1.00  0.00     0.168 HD
HETATM   12  C   UNL     1      -1.914   0.641  -0.089  1.00  0.00     0.183 A 
ENDROOT
BRANCH   2  13
HETATM   13  C   UNL     1       2.218   2.417   0.000  1.00  0.00     0.094 C 
HETATM   14  C   UNL     1       1.769   3.356   1.159  1.00  0.00     0.039 C 
HETATM   15  C   UNL     1       2.086   4.546   0.182  1.00  0.00     0.006 C 
HETATM   16  C   UNL     1       1.664   3.516  -0.939  1.00  0.00     0.039 C 
BRANCH  15  17
HETATM   17  C   UNL     1       1.169   5.756   0.355  1.00  0.00     0.175 C 
BRANCH  17  18
HETATM   18  O   UNL     1       1.250   6.600  -0.789  1.00  0.00    -0.400 OA
HETATM   19  H   UNL     1       2.197   6.809  -0.927  1.00  0.00     0.209 HD
ENDBRANCH  17  18
ENDBRANCH  15  17
BRANCH  15  20
HETATM   20  C   UNL     1       3.566   4.973   0.224  1.00  0.00     0.175 C 
BRANCH  20  21
HETATM   21  O   UNL     1       3.897   5.688  -0.962  1.00  0.00    -0.400 OA
HETATM   22  H   UNL     1       4.032   5.031  -1.670  1.00  0.00     0.209 HD
ENDBRANCH  20  21
ENDBRANCH  15  20
ENDBRANCH   2  13
BRANCH   4  23
HETATM   23  N   UNL     1      -0.853  -2.804   0.091  1.00  0.00    -0.356 N 
HETATM   24  C   UNL     1      -2.003  -3.565   0.587  1.00  0.00     0.112 C 
HETATM   25  C   UNL     1      -1.526  -5.043   0.524  1.00  0.00     0.061 C 
HETATM   26  C   UNL     1      -0.167  -5.042  -0.175  1.00  0.00     0.140 C 
HETATM   27  C   UNL     1       0.355  -3.618   0.045  1.00  0.00     0.157 C 
BRANCH  24  28
HETATM   28  C   UNL     1      -2.356  -3.233   2.060  1.00  0.00     0.192 C 
BRANCH  28  29
HETATM   29  O   UNL     1      -3.016  -1.975   2.183  1.00  0.00    -0.394 OA
HETATM   30  C   UNL     1      -3.133  -1.550   3.528  1.00  0.00     0.201 C 
ENDBRANCH  28  29
ENDBRANCH  24  28
BRANCH  26  31
HETATM   31  O   UNL     1      -0.273  -5.303  -1.579  1.00  0.00    -0.389 OA
HETATM   32  C   UNL     1      -0.521  -6.666  -1.889  1.00  0.00     0.202 C 
ENDBRANCH  26  31
ENDBRANCH   4  23
TORSDOF 9
