REMARK  3 active torsions:
REMARK  status: ('A' for Active; 'I' for Inactive)
REMARK    1  A    between atoms: C_6  and  N_7 
REMARK       I    between atoms: N_7  and  C_8 
REMARK       I    between atoms: C_8  and  N_10 
REMARK    2  A    between atoms: N_10  and  C_11 
REMARK    3  A    between atoms: C_11  and  C_12 
REMARK       I    between atoms: C_12  and  N_14 
ROOT
HETATM    1  N   UNL     1       6.835  -1.762  -0.903  1.00  0.00    -0.289 N 
HETATM    2  C   UNL     1       6.759  -3.111  -1.047  1.00  0.00     0.322 C 
HETATM    3  O   UNL     1       6.598  -3.597  -2.169  1.00  0.00    -0.247 OA
HETATM    4  N   UNL     1       6.756  -3.859   0.088  1.00  0.00    -0.334 N 
HETATM    5  H   UNL     1       6.687  -1.218  -1.737  1.00  0.00     0.172 HD
HETATM    6  H   UNL     1       7.201  -3.446   0.905  1.00  0.00     0.164 HD
ENDROOT
BRANCH   1   7
HETATM    7  C   UNL     1       6.947  -1.108   0.289  1.00  0.00     0.152 A 
HETATM    8  N   UNL     1       7.227  -1.614   1.466  1.00  0.00    -0.345 N 
HETATM    9  C   UNL     1       7.192  -0.606   2.407  1.00  0.00     0.104 A 
ATOM     10  HN  UNL     1       7.437  -2.594   1.655  1.00  0.00     0.167 HD
HETATM   11  C   UNL     1       6.845   0.644   1.929  1.00  0.00    -0.003 A 
HETATM   12  C   UNL     1       6.644   1.911   2.670  1.00  0.00     0.058 C 
HETATM   13  S   UNL     1       6.649   0.566   0.225  1.00  0.00    -0.058 SA
ENDBRANCH   1   7
BRANCH   4  14
HETATM   14  C   UNL     1       6.548  -5.284   0.063  1.00  0.00     0.227 C 
BRANCH  14  15
HETATM   15  C   UNL     1       7.847  -6.094  -0.004  1.00  0.00     0.237 C 
HETATM   16  O   UNL     1       8.925  -5.644   0.390  1.00  0.00    -0.272 OA
HETATM   17  N   UNL     1       7.707  -7.407  -0.421  1.00  0.00    -0.351 N 
HETATM   18  C   UNL     1       8.838  -8.311  -0.452  1.00  0.00     0.126 C 
HETATM   19  C   UNL     1       6.597  -7.933  -1.187  1.00  0.00     0.126 C 
HETATM   20  C   UNL     1       8.311  -9.606  -1.065  1.00  0.00     0.021 C 
HETATM   21  C   UNL     1       6.799  -9.432  -1.149  1.00  0.00     0.021 C 
ENDBRANCH  14  15
ENDBRANCH   4  14
TORSDOF 3
