REMARK  3 active torsions:
REMARK  status: ('A' for Active; 'I' for Inactive)
REMARK    1  A    between atoms: C_6  and  N_8 
REMARK       I    between atoms: N_8  and  C_9 
REMARK       I    between atoms: C_9  and  N_11 
REMARK    2  A    between atoms: N_11  and  C_12 
REMARK    3  A    between atoms: C_14  and  C_19 
ROOT
HETATM    1  N   UNL     1       3.007  -3.051  -2.220  1.00  0.00    -0.337 N 
HETATM    2  C   UNL     1       2.472  -3.600  -3.358  1.00  0.00     0.321 C 
HETATM    3  O   UNL     1       1.728  -2.963  -4.096  1.00  0.00    -0.247 OA
HETATM    4  N   UNL     1       2.849  -4.903  -3.567  1.00  0.00    -0.304 N 
HETATM    5  H   UNL     1       3.691  -3.560  -1.679  1.00  0.00     0.164 HD
HETATM    6  H   UNL     1       3.075  -5.459  -2.748  1.00  0.00     0.171 HD
ENDROOT
BRANCH   4   7
HETATM    7  C   UNL     1       2.529  -5.638  -4.695  1.00  0.00     0.105 A 
HETATM    8  C   UNL     1       2.252  -5.115  -5.902  1.00  0.00     0.052 A 
HETATM    9  C   UNL     1       1.855  -5.935  -7.034  1.00  0.00     0.065 A 
HETATM   10  C   UNL     1       1.821  -7.268  -6.879  1.00  0.00     0.107 A 
HETATM   11  N   UNL     1       2.141  -7.845  -5.675  1.00  0.00    -0.331 N 
HETATM   12  C   UNL     1       2.490  -7.135  -4.548  1.00  0.00     0.272 A 
HETATM   13  H   UNL     1       2.096  -8.852  -5.566  1.00  0.00     0.168 HD
HETATM   14  O   UNL     1       2.739  -7.676  -3.472  1.00  0.00    -0.266 OA
BRANCH   9  15
HETATM   15  C   UNL     1       1.463  -5.259  -8.320  1.00  0.00     0.418 C 
HETATM   16  F   UNL     1       1.508  -3.904  -8.258  1.00  0.00    -0.166 F 
HETATM   17  F   UNL     1       2.276  -5.628  -9.344  1.00  0.00    -0.166 F 
HETATM   18  F   UNL     1       0.199  -5.592  -8.689  1.00  0.00    -0.166 F 
ENDBRANCH   9  15
ENDBRANCH   4   7
BRANCH   1  19
HETATM   19  C   UNL     1       2.623  -1.696  -1.842  1.00  0.00     0.114 C 
HETATM   20  C   UNL     1       3.698  -0.994  -1.015  1.00  0.00     0.029 C 
HETATM   21  C   UNL     1       3.230   0.415  -0.648  1.00  0.00     0.032 C 
HETATM   22  C   UNL     1       1.861   0.396   0.039  1.00  0.00     0.272 C 
HETATM   23  N   UNL     1       0.817  -0.327  -0.699  1.00  0.00     0.086 N 
HETATM   24  C   UNL     1       0.332   0.426  -1.857  1.00  0.00     0.310 C 
HETATM   25  C   UNL     1       1.272  -1.674  -1.085  1.00  0.00     0.296 C 
ENDBRANCH   1  19
TORSDOF 3
