REMARK  4 active torsions:
REMARK  status: ('A' for Active; 'I' for Inactive)
REMARK    1  A    between atoms: N_2  and  C_3 
REMARK       I    between atoms: N_2  and  C_7 
REMARK    2  A    between atoms: C_3  and  C_4 
REMARK       I    between atoms: C_4  and  N_6 
REMARK    3  A    between atoms: C_7  and  C_9 
REMARK    4  A    between atoms: C_12  and  N_18 
ROOT
HETATM    1  C   UNL     1       4.838  -0.517  -1.037  1.00  0.00     0.140 A 
HETATM    2  N   UNL     1       5.469  -0.631   0.160  1.00  0.00    -0.184 N 
ATOM      3  HN  UNL     1       4.936  -0.753   1.021  1.00  0.00     0.184 HD
HETATM    4  C   UNL     1       6.807  -0.580   0.184  1.00  0.00     0.680 A 
HETATM    5  N   UNL     1       7.535  -0.459  -0.934  1.00  0.00    -0.200 N 
ATOM      6  HN  UNL     1       8.554  -0.433  -0.898  1.00  0.00     0.183 HD
HETATM    7  C   UNL     1       6.879  -0.373  -2.109  1.00  0.00     0.132 A 
HETATM    8  C   UNL     1       5.511  -0.387  -2.234  1.00  0.00     0.082 A 
HETATM    9 CL   UNL     1       4.820  -0.210  -3.794  1.00  0.00    -0.080 Cl
ENDROOT
BRANCH   1  10
HETATM   10  C   UNL     1       3.345  -0.635  -0.983  1.00  0.00     0.272 C 
HETATM   11  N   UNL     1       2.603  -0.136   0.102  1.00  0.00    -0.342 N 
HETATM   12  C   UNL     1       1.157  -0.263   0.004  1.00  0.00     0.153 C 
HETATM   13  O   UNL     1       2.774  -1.212  -1.910  1.00  0.00    -0.266 OA
BRANCH  11  14
HETATM   14  C   UNL     1       3.124   0.686   1.210  1.00  0.00     0.228 C 
BRANCH  14  15
HETATM   15  C   UNL     1       3.390  -0.079   2.515  1.00  0.00     0.233 C 
HETATM   16  O   UNL     1       3.887   0.447   3.508  1.00  0.00    -0.272 OA
HETATM   17  N   UNL     1       2.996  -1.387   2.559  1.00  0.00    -0.369 N 
HETATM   18  H   UNL     1       2.789  -1.875   1.697  1.00  0.00     0.159 HD
HETATM   19  H   UNL     1       3.248  -1.924   3.379  1.00  0.00     0.159 HD
ENDBRANCH  14  15
ENDBRANCH  11  14
ENDBRANCH   1  10
BRANCH   4  20
HETATM   20  N   UNL     1       7.440  -0.616   1.395  1.00  0.00    -0.214 N 
HETATM   21  C   UNL     1       8.894  -0.503   1.514  1.00  0.00     0.167 C 
HETATM   22  C   UNL     1       9.488  -1.818   2.043  1.00  0.00     0.188 C 
HETATM   23  O   UNL     1       8.847  -2.242   3.259  1.00  0.00    -0.388 OA
HETATM   24  C   UNL     1       7.444  -2.442   3.035  1.00  0.00     0.188 C 
HETATM   25  C   UNL     1       6.756  -1.152   2.570  1.00  0.00     0.167 C 
ENDBRANCH   4  20
TORSDOF 4
