REMARK  4 active torsions:
REMARK  status: ('A' for Active; 'I' for Inactive)
REMARK    1  A    between atoms: O_1  and  C_2 
REMARK    2  A    between atoms: C_2  and  C_4 
REMARK    3  A    between atoms: C_4  and  C_5 
REMARK    4  A    between atoms: C_8  and  N_11 
ROOT
HETATM    1  C   UNL     1       4.773   0.327   1.133  1.00  0.00     0.027 C 
HETATM    2  C   UNL     1       5.451   1.507   0.909  1.00  0.00     0.078 C 
HETATM    3  S   UNL     1       7.095   1.179   0.584  1.00  0.00    -0.064 SA
HETATM    4  C   UNL     1       6.799  -0.497   0.741  1.00  0.00     0.155 C 
HETATM    5  N   UNL     1       5.575  -0.815   1.125  1.00  0.00    -0.339 N 
ATOM      6  HN  UNL     1       5.264  -1.753   1.377  1.00  0.00     0.168 HD
ENDROOT
BRANCH   4   7
HETATM    7  N   UNL     1       7.785  -1.431   0.497  1.00  0.00    -0.278 N 
HETATM    8  C   UNL     1       7.662  -2.841   0.785  1.00  0.00     0.155 C 
HETATM    9  C   UNL     1       8.822  -3.487   0.041  1.00  0.00     0.145 C 
HETATM   10  N   UNL     1       9.652  -2.384  -0.334  1.00  0.00    -0.341 N 
HETATM   11  C   UNL     1       8.987  -1.173  -0.171  1.00  0.00     0.324 C 
HETATM   12  H   UNL     1      10.438  -2.420  -0.972  1.00  0.00     0.164 HD
HETATM   13  O   UNL     1       9.441  -0.137  -0.623  1.00  0.00    -0.247 OA
ENDBRANCH   4   7
BRANCH   1  14
HETATM   14  C   UNL     1       3.305   0.169   1.359  1.00  0.00     0.167 C 
BRANCH  14  15
HETATM   15  C   UNL     1       2.958  -0.462   2.686  1.00  0.00     0.145 C 
HETATM   16  O   UNL     1       1.927  -0.199   3.295  1.00  0.00    -0.650 OA
BRANCH  15  17
HETATM   17  O   UNL     1       3.823  -1.410   3.120  1.00  0.00    -0.776 OA
HETATM   18  H   UNL     1       4.596  -1.509   2.516  1.00  0.00     0.167 HD
ENDBRANCH  15  17
ENDBRANCH  14  15
ENDBRANCH   1  14
TORSDOF 4
