REMARK  6 active torsions:
REMARK  status: ('A' for Active; 'I' for Inactive)
REMARK    1  A    between atoms: N_8  and  C_9 
REMARK    2  A    between atoms: C_9  and  C_10 
REMARK    3  A    between atoms: C_10  and  O_11 
REMARK    4  A    between atoms: C_10  and  C_12 
REMARK    5  A    between atoms: C_12  and  N_13 
REMARK    6  A    between atoms: C_16  and  C_19 
ROOT
HETATM    1  C   UNL     1       7.094   2.179   0.200  1.00  0.00     0.156 C 
ENDROOT
BRANCH   1   2
HETATM    2  C   UNL     1       7.630   0.752   0.006  1.00  0.00     0.163 C 
BRANCH   2   3
HETATM    3  N   UNL     1       6.555  -0.227  -0.036  1.00  0.00    -0.339 N 
HETATM    4  C   UNL     1       6.029  -0.858   1.059  1.00  0.00     0.184 A 
HETATM    5  N   UNL     1       5.009  -1.620   0.740  1.00  0.00    -0.350 N 
HETATM    6  C   UNL     1       4.866  -1.473  -0.617  1.00  0.00     0.060 A 
ATOM      7  HN  UNL     1       4.445  -2.196   1.365  1.00  0.00     0.166 HD
HETATM    8  C   UNL     1       3.908  -2.032  -1.473  1.00  0.00     0.039 A 
HETATM    9  C   UNL     1       5.843  -0.630  -1.139  1.00  0.00     0.062 A 
HETATM   10  C   UNL     1       3.952  -1.744  -2.850  1.00  0.00    -0.054 A 
HETATM   11  C   UNL     1       2.900  -2.341  -3.747  1.00  0.00     0.049 C 
HETATM   12  C   UNL     1       4.965  -0.903  -3.362  1.00  0.00    -0.054 A 
HETATM   13  C   UNL     1       5.929  -0.335  -2.504  1.00  0.00     0.039 A 
HETATM   14  C   UNL     1       5.032  -0.583  -4.833  1.00  0.00     0.049 C 
ENDBRANCH   2   3
ENDBRANCH   1   2
BRANCH   1  15
HETATM   15  O   UNL     1       6.408   2.261   1.459  1.00  0.00    -0.392 OA
HETATM   16  H   UNL     1       7.013   2.035   2.184  1.00  0.00     0.210 HD
ENDBRANCH   1  15
BRANCH   1  17
HETATM   17  C   UNL     1       8.222   3.217   0.164  1.00  0.00     0.181 C 
BRANCH  17  18
HETATM   18  N   UNL     1       7.703   4.575   0.259  1.00  0.00    -0.300 N 
HETATM   19  C   UNL     1       7.462   5.270   1.409  1.00  0.00     0.112 A 
HETATM   20  C   UNL     1       6.931   6.474   1.020  1.00  0.00     0.054 A 
HETATM   21  C   UNL     1       6.915   6.440  -0.401  1.00  0.00     0.133 A 
HETATM   22  N   UNL     1       7.416   5.270  -0.857  1.00  0.00    -0.295 N 
ATOM     23  HN  UNL     1       7.547   4.980  -1.826  1.00  0.00     0.187 HD
BRANCH  21  24
HETATM   24  C   UNL     1       6.418   7.539  -1.306  1.00  0.00     0.433 C 
HETATM   25  F   UNL     1       5.967   8.612  -0.595  1.00  0.00    -0.165 F 
HETATM   26  F   UNL     1       7.387   8.012  -2.132  1.00  0.00    -0.165 F 
HETATM   27  F   UNL     1       5.381   7.142  -2.092  1.00  0.00    -0.165 F 
ENDBRANCH  21  24
ENDBRANCH  17  18
ENDBRANCH   1  17
TORSDOF 6
