REMARK  6 active torsions:
REMARK  status: ('A' for Active; 'I' for Inactive)
REMARK    1  A    between atoms: O_2  and  C_3 
REMARK    2  A    between atoms: C_3  and  C_4 
REMARK    3  A    between atoms: C_4  and  N_5 
REMARK    4  A    between atoms: C_6  and  N_7 
REMARK    5  A    between atoms: C_8  and  S_9 
REMARK    6  A    between atoms: S_9  and  C_10 
ROOT
HETATM    1  N   UNL     1       4.730   2.693  -0.994  1.00  0.00    -0.287 N 
HETATM    2  C   UNL     1       5.516   2.719  -2.149  1.00  0.00     0.107 C 
HETATM    3  C   UNL     1       6.154   3.862  -2.500  1.00  0.00     0.112 C 
HETATM    4  C   UNL     1       5.859   5.124  -1.766  1.00  0.00     0.269 C 
HETATM    5  O   UNL     1       6.385   6.201  -2.021  1.00  0.00    -0.266 OA
HETATM    6  N   UNL     1       4.927   5.015  -0.773  1.00  0.00    -0.274 N 
HETATM    7  C   UNL     1       4.426   3.850  -0.271  1.00  0.00     0.330 C 
HETATM    8  O   UNL     1       3.743   3.885   0.749  1.00  0.00    -0.246 OA
HETATM    9  H   UNL     1       4.719   5.850  -0.248  1.00  0.00     0.173 HD
ENDROOT
BRANCH   3  10
HETATM   10  S   UNL     1       7.474   3.847  -3.637  1.00  0.00    -0.082 SA
BRANCH  10  11
HETATM   11  C   UNL     1       6.786   4.641  -5.067  1.00  0.00     0.005 A 
HETATM   12  C   UNL     1       7.615   5.505  -5.791  1.00  0.00     0.019 A 
HETATM   13  C   UNL     1       7.126   6.200  -6.898  1.00  0.00     0.008 A 
HETATM   14  C   UNL     1       5.798   6.033  -7.300  1.00  0.00    -0.062 A 
HETATM   15  C   UNL     1       5.208   6.900  -8.370  1.00  0.00     0.048 C 
HETATM   16  C   UNL     1       4.993   5.108  -6.625  1.00  0.00     0.008 A 
HETATM   17  C   UNL     1       5.487   4.408  -5.522  1.00  0.00     0.019 A 
ENDBRANCH  10  11
ENDBRANCH   3  10
BRANCH   2  18
HETATM   18  N   UNL     1       5.656   1.576  -2.943  1.00  0.00    -0.287 NA
HETATM   19  H   UNL     1       6.099   0.825  -2.434  1.00  0.00     0.125 HD
HETATM   20  H   UNL     1       6.254   1.781  -3.747  1.00  0.00     0.125 HD
ENDBRANCH   2  18
BRANCH   1  21
HETATM   21  C   UNL     1       4.223   1.422  -0.450  1.00  0.00     0.161 C 
BRANCH  21  22
HETATM   22  C   UNL     1       5.302   0.451   0.069  1.00  0.00     0.187 C 
BRANCH  22  23
HETATM   23  O   UNL     1       6.169   1.072   1.018  1.00  0.00    -0.394 OA
HETATM   24  C   UNL     1       7.234   0.203   1.392  1.00  0.00     0.201 C 
ENDBRANCH  22  23
ENDBRANCH  21  22
ENDBRANCH   1  21
TORSDOF 6
