REMARK  3 active torsions:
REMARK  status: ('A' for Active; 'I' for Inactive)
REMARK    1  A    between atoms: O_2  and  C_3 
REMARK    2  A    between atoms: C_6  and  N_7 
REMARK       I    between atoms: N_7  and  C_8 
REMARK       I    between atoms: C_8  and  N_10 
REMARK    3  A    between atoms: N_10  and  C_11 
ROOT
HETATM    1  N   UNL     1       3.460   2.814   3.248  1.00  0.00    -0.337 N 
HETATM    2  C   UNL     1       3.917   4.110   3.413  1.00  0.00     0.322 C 
HETATM    3  O   UNL     1       3.422   5.046   2.798  1.00  0.00    -0.247 OA
HETATM    4  N   UNL     1       4.993   4.154   4.266  1.00  0.00    -0.289 N 
HETATM    5  H   UNL     1       3.537   2.229   4.067  1.00  0.00     0.164 HD
HETATM    6  H   UNL     1       5.479   3.304   4.494  1.00  0.00     0.172 HD
ENDROOT
BRANCH   1   7
HETATM    7  C   UNL     1       2.389   2.522   2.254  1.00  0.00     0.099 C 
HETATM    8  C   UNL     1       1.952   1.042   2.227  1.00  0.00     0.064 C 
HETATM    9  C   UNL     1       2.876   0.797   0.995  1.00  0.00     0.067 C 
HETATM   10  C   UNL     1       4.186   0.132   1.434  1.00  0.00     0.047 C 
HETATM   11  C   UNL     1       2.853   2.369   0.763  1.00  0.00     0.004 C 
HETATM   12  C   UNL     1       4.192   2.979   0.345  1.00  0.00     0.020 C 
HETATM   13  C   UNL     1       1.745   2.873  -0.182  1.00  0.00     0.020 C 
BRANCH   9  14
HETATM   14  O   UNL     1       2.252  -0.004  -0.046  1.00  0.00    -0.384 OA
HETATM   15  C   UNL     1       2.957  -0.169  -1.271  1.00  0.00     0.202 C 
ENDBRANCH   9  14
ENDBRANCH   1   7
BRANCH   4  16
HETATM   16  C   UNL     1       5.653   5.328   4.507  1.00  0.00     0.152 A 
HETATM   17  N   UNL     1       5.289   6.552   4.231  1.00  0.00    -0.346 N 
HETATM   18  C   UNL     1       6.293   7.423   4.591  1.00  0.00     0.097 A 
ATOM     19  HN  UNL     1       4.398   6.821   3.813  1.00  0.00     0.167 HD
HETATM   20  C   UNL     1       7.407   6.841   5.159  1.00  0.00     0.070 A 
HETATM   21  S   UNL     1       7.173   5.142   5.264  1.00  0.00    -0.064 SA
ENDBRANCH   4  16
TORSDOF 3
