REMARK  4 active torsions:
REMARK  status: ('A' for Active; 'I' for Inactive)
REMARK    1  A    between atoms: C_2  and  C_3 
REMARK    2  A    between atoms: C_2  and  N_11 
REMARK    3  A    between atoms: C_3  and  N_4 
REMARK       I    between atoms: N_11  and  C_12 
REMARK    4  A    between atoms: C_12  and  C_14 
ROOT
HETATM    1  N   UNL     1       3.037  -1.171   0.904  1.00  0.00    -0.355 N 
HETATM    2  C   UNL     1       4.382  -1.452   0.876  1.00  0.00     0.224 C 
HETATM    3  O   UNL     1       5.167  -0.812   0.181  1.00  0.00    -0.273 OA
HETATM    4  H   UNL     1       2.410  -1.827   1.358  1.00  0.00     0.162 HD
ENDROOT
BRANCH   1   5
HETATM    5  C   UNL     1       2.443  -0.099   0.082  1.00  0.00     0.100 C 
HETATM    6  C   UNL     1       0.921  -0.149   0.235  1.00  0.00     0.034 C 
BRANCH   5   7
HETATM    7  C   UNL     1       3.015   1.291   0.447  1.00  0.00     0.174 C 
BRANCH   7   8
HETATM    8  N   UNL     1       2.497   2.378  -0.353  1.00  0.00    -0.285 N 
HETATM    9  C   UNL     1       2.994   2.870  -1.520  1.00  0.00     0.201 A 
HETATM   10  N   UNL     1       2.286   3.911  -1.892  1.00  0.00    -0.346 N 
HETATM   11  C   UNL     1       1.365   4.032  -0.891  1.00  0.00     0.198 A 
ATOM     12  HN  UNL     1       2.397   4.489  -2.725  1.00  0.00     0.167 HD
HETATM   13  N   UNL     1       1.453   3.114   0.076  1.00  0.00    -0.293 N 
ATOM     14  HN  UNL     1       0.883   3.001   0.914  1.00  0.00     0.188 HD
ENDBRANCH   7   8
ENDBRANCH   5   7
ENDBRANCH   1   5
BRANCH   2  15
HETATM   15  C   UNL     1       4.826  -2.552   1.819  1.00  0.00     0.104 C 
HETATM   16  C   UNL     1       6.339  -2.729   1.775  1.00  0.00     0.139 C 
HETATM   17  N   UNL     1       6.540  -4.118   2.085  1.00  0.00    -0.356 N 
HETATM   18  C   UNL     1       7.862  -4.702   2.100  1.00  0.00     0.152 C 
HETATM   19  C   UNL     1       5.412  -4.873   1.801  1.00  0.00     0.220 C 
HETATM   20  O   UNL     1       5.336  -6.090   1.783  1.00  0.00    -0.273 OA
HETATM   21  C   UNL     1       4.286  -3.931   1.448  1.00  0.00     0.118 C 
ENDBRANCH   2  15
TORSDOF 4
