REMARK  4 active torsions:
REMARK  status: ('A' for Active; 'I' for Inactive)
REMARK    1  A    between atoms: C_6  and  N_7 
REMARK       I    between atoms: N_7  and  C_8 
REMARK       I    between atoms: C_8  and  N_10 
REMARK    2  A    between atoms: N_10  and  C_11 
REMARK    3  A    between atoms: C_11  and  C_12 
REMARK    4  A    between atoms: C_12  and  N_13 
ROOT
HETATM    1  N   UNL     1       6.258  -3.007  -1.753  1.00  0.00    -0.295 N 
HETATM    2  C   UNL     1       5.645  -4.235  -1.828  1.00  0.00     0.321 C 
HETATM    3  O   UNL     1       5.381  -4.876  -2.836  1.00  0.00    -0.247 OA
HETATM    4  N   UNL     1       5.328  -4.716  -0.562  1.00  0.00    -0.341 N 
HETATM    5  H   UNL     1       6.549  -2.684  -0.848  1.00  0.00     0.172 HD
HETATM    6  H   UNL     1       5.154  -4.011   0.135  1.00  0.00     0.164 HD
ENDROOT
BRANCH   1   7
HETATM    7  C   UNL     1       6.635  -2.248  -2.871  1.00  0.00     0.109 A 
HETATM    8  C   UNL     1       7.340  -1.070  -2.659  1.00  0.00     0.049 A 
HETATM    9  C   UNL     1       7.746  -0.322  -3.764  1.00  0.00     0.006 A 
HETATM   10  C   UNL     1       7.434  -0.766  -5.044  1.00  0.00     0.025 A 
HETATM   11  C   UNL     1       6.715  -1.945  -5.176  1.00  0.00     0.007 A 
HETATM   12  C   UNL     1       6.309  -2.479  -6.514  1.00  0.00     0.068 C 
HETATM   13  N   UNL     1       6.312  -2.663  -4.107  1.00  0.00    -0.346 N 
ATOM     14  HN  UNL     1       5.766  -3.515  -4.237  1.00  0.00     0.167 HD
ENDBRANCH   1   7
BRANCH   4  15
HETATM   15  C   UNL     1       4.481  -5.899  -0.490  1.00  0.00     0.143 C 
BRANCH  15  16
HETATM   16  C   UNL     1       5.246  -7.219  -0.709  1.00  0.00     0.136 C 
BRANCH  16  17
HETATM   17  N   UNL     1       4.448  -8.444  -0.836  1.00  0.00    -0.411 N 
HETATM   18  C   UNL     1       3.505  -8.452  -1.956  1.00  0.00     0.117 C 
HETATM   19  C   UNL     1       2.082  -8.002  -1.607  1.00  0.00     0.019 C 
HETATM   20  C   UNL     1       1.550  -8.748  -0.393  1.00  0.00     0.003 C 
HETATM   21  C   UNL     1       2.512  -8.592   0.778  1.00  0.00     0.019 C 
HETATM   22  C   UNL     1       3.930  -9.018   0.400  1.00  0.00     0.117 C 
ENDBRANCH  16  17
ENDBRANCH  15  16
ENDBRANCH   4  15
TORSDOF 4
