REMARK  6 active torsions:
REMARK  status: ('A' for Active; 'I' for Inactive)
REMARK    1  A    between atoms: N_5  and  C_6 
REMARK    2  A    between atoms: C_6  and  C_7 
REMARK    3  A    between atoms: C_7  and  O_8 
REMARK    4  A    between atoms: C_7  and  C_9 
REMARK    5  A    between atoms: C_9  and  N_10 
REMARK       I    between atoms: N_10  and  C_11 
REMARK       I    between atoms: C_11  and  N_13 
REMARK    6  A    between atoms: N_13  and  C_14 
ROOT
HETATM    1  N   UNL     1       7.237   1.035  -4.939  1.00  0.00    -0.340 N 
HETATM    2  C   UNL     1       8.442   0.661  -5.475  1.00  0.00     0.320 C 
HETATM    3  O   UNL     1       8.970  -0.397  -5.161  1.00  0.00    -0.247 OA
HETATM    4  N   UNL     1       8.930   1.569  -6.381  1.00  0.00    -0.309 N 
HETATM    5  H   UNL     1       6.940   2.001  -4.971  1.00  0.00     0.164 HD
HETATM    6  H   UNL     1       8.525   2.492  -6.361  1.00  0.00     0.170 HD
ENDROOT
BRANCH   1   7
HETATM    7  C   UNL     1       6.623   0.203  -3.919  1.00  0.00     0.157 C 
BRANCH   7   8
HETATM    8  C   UNL     1       5.103   0.366  -3.908  1.00  0.00     0.164 C 
BRANCH   8   9
HETATM    9  C   UNL     1       4.491  -0.620  -2.881  1.00  0.00     0.305 C 
BRANCH   9  10
HETATM   10  N   UNL     1       3.025  -0.549  -2.727  1.00  0.00     0.091 N 
HETATM   11  C   UNL     1       2.550  -1.459  -1.667  1.00  0.00     0.273 C 
HETATM   12  C   UNL     1       2.632  -2.946  -2.036  1.00  0.00     0.034 C 
HETATM   13  C   UNL     1       1.935  -3.263  -3.366  1.00  0.00    -0.015 C 
HETATM   14  C   UNL     1       0.412  -3.286  -3.206  1.00  0.00     0.010 C 
HETATM   15  C   UNL     1       2.371  -2.265  -4.449  1.00  0.00     0.034 C 
HETATM   16  C   UNL     1       2.285  -0.811  -3.973  1.00  0.00     0.273 C 
ENDBRANCH   9  10
ENDBRANCH   8   9
BRANCH   8  17
HETATM   17  O   UNL     1       4.803   1.735  -3.602  1.00  0.00    -0.392 OA
HETATM   18  H   UNL     1       4.688   1.795  -2.637  1.00  0.00     0.210 HD
ENDBRANCH   8  17
ENDBRANCH   7   8
ENDBRANCH   1   7
BRANCH   4  19
HETATM   19  C   UNL     1      10.068   1.367  -7.192  1.00  0.00     0.038 A 
HETATM   20  C   UNL     1      10.622   0.107  -7.414  1.00  0.00     0.046 A 
HETATM   21  C   UNL     1      11.756   0.006  -8.197  1.00  0.00     0.090 A 
HETATM   22  N   UNL     1      12.360   1.063  -8.778  1.00  0.00    -0.375 N 
HETATM   23  C   UNL     1      11.793   2.270  -8.568  1.00  0.00     0.090 A 
ATOM     24  HN  UNL     1      13.201   0.956  -9.346  1.00  0.00     0.164 HD
HETATM   25  C   UNL     1      10.654   2.470  -7.801  1.00  0.00     0.046 A 
ENDBRANCH   4  19
TORSDOF 6
