REMARK  3 active torsions:
REMARK  status: ('A' for Active; 'I' for Inactive)
REMARK       I    between atoms: N_2  and  C_3 
REMARK    1  A    between atoms: C_3  and  C_5 
REMARK    2  A    between atoms: C_5  and  N_6 
REMARK    3  A    between atoms: N_13  and  C_14 
ROOT
HETATM    1  N   UNL     1       5.063  -2.634  -0.426  1.00  0.00    -0.256 N 
HETATM    2  C   UNL     1       4.394  -3.699   0.157  1.00  0.00     0.274 C 
HETATM    3  O   UNL     1       3.498  -3.559   0.987  1.00  0.00    -0.266 OA
HETATM    4  C   UNL     1       4.847  -5.051  -0.233  1.00  0.00     0.128 C 
HETATM    5  C   UNL     1       4.138  -6.197   0.215  1.00  0.00     0.106 C 
HETATM    6  N   UNL     1       3.607  -7.173   0.545  1.00  0.00    -0.191 NA
HETATM    7  C   UNL     1       5.959  -5.159  -0.966  1.00  0.00     0.124 C 
HETATM    8  N   UNL     1       6.661  -4.063  -1.413  1.00  0.00    -0.303 N 
HETATM    9  C   UNL     1       6.236  -2.749  -1.169  1.00  0.00     0.332 C 
HETATM   10  O   UNL     1       6.880  -1.767  -1.539  1.00  0.00    -0.246 OA
ENDROOT
BRANCH   1  11
HETATM   11  C   UNL     1       4.547  -1.298  -0.158  1.00  0.00     0.239 C 
BRANCH  11  12
HETATM   12  C   UNL     1       3.382  -0.969  -1.098  1.00  0.00     0.235 C 
HETATM   13  N   UNL     1       2.842   0.287  -0.878  1.00  0.00    -0.364 N 
HETATM   14  C   UNL     1       1.697   0.754  -1.621  1.00  0.00     0.149 C 
HETATM   15  H   UNL     1       3.139   0.822  -0.072  1.00  0.00     0.161 HD
HETATM   16  O   UNL     1       2.966  -1.738  -1.960  1.00  0.00    -0.272 OA
ENDBRANCH  11  12
ENDBRANCH   1  11
BRANCH   8  17
HETATM   17  C   UNL     1       7.942  -4.290  -2.050  1.00  0.00     0.094 A 
HETATM   18  C   UNL     1       8.209  -3.840  -3.465  1.00  0.00     0.028 A 
HETATM   19  C   UNL     1       8.158  -5.303  -3.149  1.00  0.00     0.028 A 
ENDBRANCH   8  17
TORSDOF 3
