REMARK  5 active torsions:
REMARK  status: ('A' for Active; 'I' for Inactive)
REMARK    1  A    between atoms: S_2  and  N_5 
REMARK    2  A    between atoms: N_5  and  C_6 
REMARK       I    between atoms: N_9  and  C_12 
REMARK       I    between atoms: C_12  and  N_14 
REMARK    3  A    between atoms: N_14  and  C_15 
REMARK    4  A    between atoms: C_15  and  C_16 
REMARK    5  A    between atoms: C_16  and  C_17 
ROOT
HETATM    1  C   UNL     1       4.766  -0.656   1.323  1.00  0.00     0.074 C 
HETATM    2  C   UNL     1       5.477   0.401   0.471  1.00  0.00     0.040 C 
HETATM    3  C   UNL     1       5.552   0.044  -1.017  1.00  0.00     0.129 C 
HETATM    4  N   UNL     1       5.954  -1.340  -1.271  1.00  0.00    -0.334 N 
HETATM    5  C   UNL     1       5.314  -2.362  -0.444  1.00  0.00     0.129 C 
HETATM    6  C   UNL     1       5.388  -2.017   1.034  1.00  0.00     0.040 C 
HETATM    7  C   UNL     1       6.614  -1.777  -2.417  1.00  0.00     0.318 C 
HETATM    8  O   UNL     1       6.938  -2.946  -2.606  1.00  0.00    -0.247 OA
HETATM    9  N   UNL     1       6.888  -0.794  -3.335  1.00  0.00    -0.343 N 
HETATM   10  H   UNL     1       6.136  -0.128  -3.431  1.00  0.00     0.164 HD
ENDROOT
BRANCH   9  11
HETATM   11  C   UNL     1       7.564  -1.137  -4.581  1.00  0.00     0.130 C 
BRANCH  11  12
HETATM   12  C   UNL     1       7.854   0.111  -5.408  1.00  0.00     0.076 C 
BRANCH  12  13
HETATM   13  C   UNL     1       8.579  -0.202  -6.688  1.00  0.00     0.010 A 
HETATM   14  C   UNL     1       9.971  -0.230  -6.726  1.00  0.00     0.025 A 
HETATM   15  C   UNL     1      10.605  -0.490  -7.938  1.00  0.00     0.003 A 
HETATM   16  C   UNL     1       9.838  -0.721  -9.072  1.00  0.00     0.017 A 
HETATM   17  C   UNL     1       8.460  -0.689  -8.946  1.00  0.00     0.088 A 
HETATM   18  N   UNL     1       7.817  -0.435  -7.784  1.00  0.00    -0.369 N 
ATOM     19  HN  UNL     1       6.798  -0.419  -7.734  1.00  0.00     0.165 HD
ENDBRANCH  12  13
ENDBRANCH  11  12
ENDBRANCH   9  11
BRANCH   1  20
HETATM   20  N   UNL     1       3.281  -0.586   1.077  1.00  0.00    -0.215 NA
HETATM   21  H   UNL     1       2.959   0.370   1.252  1.00  0.00     0.140 HD
BRANCH  20  22
HETATM   22  S   UNL     1       2.327  -1.637   2.025  1.00  0.00     0.206 S 
HETATM   23  C   UNL     1       0.680  -1.182   1.520  1.00  0.00     0.179 C 
HETATM   24  O   UNL     1       2.512  -1.225   3.396  1.00  0.00    -0.212 OA
HETATM   25  O   UNL     1       2.561  -2.993   1.588  1.00  0.00    -0.212 OA
ENDBRANCH  20  22
ENDBRANCH   1  20
TORSDOF 5
