REMARK  4 active torsions:
REMARK  status: ('A' for Active; 'I' for Inactive)
REMARK    1  A    between atoms: C_5  and  N_9 
REMARK    2  A    between atoms: N_9  and  C_10 
REMARK    3  A    between atoms: C_10  and  C_11 
REMARK    4  A    between atoms: C_11  and  C_12 
ROOT
HETATM    1  C   UNL     1       5.127   0.203  -3.958  1.00  0.00     0.275 C 
ENDROOT
BRANCH   1   2
HETATM    2  N   UNL     1       4.597  -0.703  -2.932  1.00  0.00     0.088 N 
HETATM    3  H   UNL     1       4.942  -1.648  -3.107  1.00  0.00     0.316 HD
BRANCH   2   4
HETATM    4  C   UNL     1       3.124  -0.727  -2.890  1.00  0.00     0.220 C 
HETATM    5  C   UNL     1       2.503   0.640  -2.546  1.00  0.00     0.036 C 
HETATM    6  C   UNL     1       2.871   1.096  -1.135  1.00  0.00     0.007 C 
HETATM    7  C   UNL     1       2.425   0.084  -0.065  1.00  0.00    -0.015 C 
HETATM    8  C   UNL     1       0.901   0.135   0.111  1.00  0.00     0.010 C 
HETATM    9  C   UNL     1       2.978  -1.327  -0.392  1.00  0.00    -0.013 C 
HETATM   10  C   UNL     1       2.666  -1.760  -1.839  1.00  0.00     0.040 C 
HETATM   11  C   UNL     1       2.504  -2.392   0.601  1.00  0.00     0.010 C 
ENDBRANCH   2   4
ENDBRANCH   1   2
BRANCH   1  12
HETATM   12  C   UNL     1       6.661   0.182  -3.993  1.00  0.00     0.072 C 
BRANCH  12  13
HETATM   13  C   UNL     1       7.196   1.153  -4.997  1.00  0.00    -0.009 A 
HETATM   14  C   UNL     1       7.457   2.540  -4.817  1.00  0.00     0.030 A 
HETATM   15  C   UNL     1       7.269   3.377  -3.605  1.00  0.00     0.070 C 
HETATM   16  N   UNL     1       7.922   3.104  -5.935  1.00  0.00    -0.303 N 
HETATM   17  N   UNL     1       7.967   2.099  -6.824  1.00  0.00    -0.300 N 
ATOM     18  HN  UNL     1       8.184   4.079  -6.081  1.00  0.00     0.186 HD
HETATM   19  C   UNL     1       8.470   2.364  -8.153  1.00  0.00     0.177 C 
HETATM   20  C   UNL     1       7.513   0.906  -6.324  1.00  0.00     0.032 A 
HETATM   21  C   UNL     1       7.410  -0.346  -7.115  1.00  0.00     0.070 C 
ENDBRANCH  12  13
ENDBRANCH   1  12
TORSDOF 4
