REMARK  8 active torsions:
REMARK  status: ('A' for Active; 'I' for Inactive)
REMARK    1  A    between atoms: O_1  and  C_2 
REMARK    2  A    between atoms: C_2  and  C_12 
REMARK    3  A    between atoms: C_2  and  C_3 
REMARK    4  A    between atoms: C_3  and  O_4 
REMARK    5  A    between atoms: O_4  and  C_5 
REMARK    6  A    between atoms: C_5  and  C_6 
REMARK    7  A    between atoms: C_12  and  N_13 
REMARK    8  A    between atoms: C_16  and  C_21 
ROOT
HETATM    1  C   UNL     1       2.886   1.079  -0.922  1.00  0.00     0.186 C 
ENDROOT
BRANCH   1   2
HETATM    2  C   UNL     1       2.381  -0.081  -0.051  1.00  0.00     0.162 C 
BRANCH   2   3
HETATM    3  O   UNL     1       2.877  -1.337  -0.544  1.00  0.00    -0.392 OA
HETATM    4  H   UNL     1       3.735  -1.140  -0.968  1.00  0.00     0.210 HD
ENDBRANCH   2   3
BRANCH   2   5
HETATM    5  C   UNL     1       0.846  -0.122  -0.008  1.00  0.00     0.201 C 
BRANCH   5   6
HETATM    6  O   UNL     1       0.310  -0.115  -1.335  1.00  0.00    -0.384 OA
BRANCH   6   7
HETATM    7  C   UNL     1      -1.114  -0.216  -1.338  1.00  0.00     0.206 C 
BRANCH   7   8
HETATM    8  C   UNL     1      -1.632  -0.285  -2.755  1.00  0.00    -0.035 A 
HETATM    9  C   UNL     1      -0.927  -0.973  -3.753  1.00  0.00     0.009 A 
HETATM   10  C   UNL     1      -1.432  -1.060  -5.053  1.00  0.00     0.001 A 
HETATM   11  C   UNL     1      -2.655  -0.469  -5.367  1.00  0.00     0.000 A 
HETATM   12  C   UNL     1      -3.376   0.201  -4.381  1.00  0.00     0.001 A 
HETATM   13  C   UNL     1      -2.871   0.287  -3.081  1.00  0.00     0.009 A 
ENDBRANCH   7   8
ENDBRANCH   6   7
ENDBRANCH   5   6
ENDBRANCH   2   5
ENDBRANCH   1   2
BRANCH   1  14
HETATM   14  N   UNL     1       4.352   1.132  -0.942  1.00  0.00    -0.255 N 
HETATM   15  N   UNL     1       4.967   0.452  -1.976  1.00  0.00    -0.291 N 
HETATM   16  C   UNL     1       6.266   0.497  -2.058  1.00  0.00     0.132 A 
ATOM     17  HN  UNL     1       4.418  -0.072  -2.657  1.00  0.00     0.187 HD
HETATM   18  C   UNL     1       7.117   1.186  -1.058  1.00  0.00     0.041 A 
HETATM   19  C   UNL     1       6.503   1.823  -0.059  1.00  0.00     0.078 A 
HETATM   20  C   UNL     1       5.029   1.833   0.044  1.00  0.00     0.262 A 
HETATM   21  O   UNL     1       4.497   2.436   0.972  1.00  0.00    -0.267 OA
BRANCH  16  22
HETATM   22  C   UNL     1       6.974  -0.178  -3.236  1.00  0.00     0.433 C 
HETATM   23  F   UNL     1       8.330  -0.068  -3.166  1.00  0.00    -0.165 F 
HETATM   24  F   UNL     1       6.703  -1.508  -3.309  1.00  0.00    -0.165 F 
HETATM   25  F   UNL     1       6.612   0.364  -4.430  1.00  0.00    -0.165 F 
ENDBRANCH  16  22
ENDBRANCH   1  14
TORSDOF 8
