REMARK  8 active torsions:
REMARK  status: ('A' for Active; 'I' for Inactive)
REMARK    1  A    between atoms: N_2  and  C_15 
REMARK    2  A    between atoms: C_6  and  N_7 
REMARK    3  A    between atoms: N_13  and  C_25 
REMARK    4  A    between atoms: C_15  and  C_18 
REMARK    5  A    between atoms: C_16  and  C_29 
REMARK    6  A    between atoms: C_18  and  O_24 
REMARK    7  A    between atoms: C_25  and  C_30 
REMARK    8  A    between atoms: O_28  and  C_30 
ROOT
HETATM    1  C   UNL     1      -0.206  -0.818  -1.125  1.00  0.00     0.122 A 
HETATM    2  N   UNL     1       0.429   1.013  -2.142  1.00  0.00    -0.324 N 
HETATM    3  C   UNL     1      -0.258   0.567  -1.048  1.00  0.00     0.140 A 
HETATM    4  N   UNL     1       0.498  -1.201  -2.257  1.00  0.00    -0.346 N 
ATOM      5  HN  UNL     1       0.673  -2.151  -2.584  1.00  0.00     0.167 HD
HETATM    6  C   UNL     1      -0.821  -1.547  -0.078  1.00  0.00     0.135 A 
HETATM    7  C   UNL     1       0.892  -0.079  -2.819  1.00  0.00     0.185 A 
HETATM    8  N   UNL     1      -0.836   1.315  -0.096  1.00  0.00    -0.336 N 
ATOM      9  HN  UNL     1      -0.862   2.335  -0.095  1.00  0.00     0.168 HD
HETATM   10  N   UNL     1      -1.389  -0.804   0.926  1.00  0.00    -0.337 N 
ATOM     11  HN  UNL     1      -1.820  -1.269   1.725  1.00  0.00     0.168 HD
HETATM   12  C   UNL     1      -1.376   0.537   0.855  1.00  0.00     0.183 A 
ENDROOT
BRANCH   6  13
HETATM   13  N   UNL     1      -0.803  -2.941   0.019  1.00  0.00    -0.362 N 
HETATM   14  C   UNL     1      -1.415  -3.500   1.231  1.00  0.00     0.160 C 
HETATM   15  C   UNL     1      -1.116  -5.030   1.331  1.00  0.00     0.240 C 
HETATM   16  N   UNL     1      -1.515  -5.807   0.115  1.00  0.00     0.098 N 
HETATM   17  C   UNL     1      -0.832  -5.165  -1.043  1.00  0.00     0.293 C 
HETATM   18  C   UNL     1      -1.131  -3.660  -1.220  1.00  0.00     0.154 C 
BRANCH  15  19
HETATM   19  C   UNL     1      -1.632  -5.576   2.677  1.00  0.00     0.033 C 
HETATM   20  C   UNL     1      -1.289  -7.039   2.920  1.00  0.00     0.007 C 
ENDBRANCH  15  19
BRANCH  16  21
HETATM   21  C   UNL     1      -2.977  -5.904  -0.092  1.00  0.00     0.299 C 
BRANCH  21  22
HETATM   22  C   UNL     1      -3.343  -6.802  -1.292  1.00  0.00     0.197 C 
BRANCH  22  23
HETATM   23  O   UNL     1      -4.759  -6.885  -1.470  1.00  0.00    -0.394 OA
HETATM   24  C   UNL     1      -5.062  -7.635  -2.646  1.00  0.00     0.201 C 
ENDBRANCH  22  23
ENDBRANCH  21  22
ENDBRANCH  16  21
ENDBRANCH   6  13
BRANCH   2  25
HETATM   25  C   UNL     1       0.744   2.396  -2.431  1.00  0.00     0.169 C 
BRANCH  25  26
HETATM   26  C   UNL     1      -0.202   3.105  -3.431  1.00  0.00     0.078 C 
HETATM   27  C   UNL     1       0.296   4.546  -3.645  1.00  0.00     0.066 C 
HETATM   28  C   UNL     1      -0.103   5.463  -2.502  1.00  0.00     0.170 C 
HETATM   29  O   UNL     1      -1.520   5.480  -2.381  1.00  0.00    -0.391 OA
HETATM   30  C   UNL     1      -2.044   4.207  -2.010  1.00  0.00     0.170 C 
HETATM   31  C   UNL     1      -1.693   3.131  -3.036  1.00  0.00     0.066 C 
BRANCH  26  32
HETATM   32  O   UNL     1      -0.062   2.457  -4.710  1.00  0.00    -0.388 OA
HETATM   33  H   UNL     1      -0.303   1.519  -4.629  1.00  0.00     0.210 HD
ENDBRANCH  26  32
ENDBRANCH  25  26
ENDBRANCH   2  25
TORSDOF 8
