REMARK  6 active torsions:
REMARK  status: ('A' for Active; 'I' for Inactive)
REMARK    1  A    between atoms: N_7  and  C_8 
REMARK    2  A    between atoms: C_8  and  C_9 
REMARK    3  A    between atoms: C_9  and  O_10 
REMARK    4  A    between atoms: C_9  and  C_11 
REMARK    5  A    between atoms: C_11  and  O_12 
REMARK    6  A    between atoms: O_12  and  C_13 
ROOT
HETATM    1  C   UNL     1       4.219  -3.709  -0.184  1.00  0.00     0.161 C 
ENDROOT
BRANCH   1   2
HETATM    2  C   UNL     1       5.082  -2.466   0.078  1.00  0.00     0.171 C 
BRANCH   2   3
HETATM    3  N   UNL     1       5.914  -2.507   1.272  1.00  0.00    -0.264 N 
HETATM    4  C   UNL     1       7.219  -2.943   1.141  1.00  0.00     0.252 C 
HETATM    5  C   UNL     1       8.074  -2.822   2.331  1.00  0.00     0.092 C 
HETATM    6  O   UNL     1       7.691  -3.425   0.115  1.00  0.00    -0.268 OA
HETATM    7  C   UNL     1       7.559  -2.328   3.456  1.00  0.00     0.100 C 
HETATM    8  N   UNL     1       6.241  -1.961   3.542  1.00  0.00    -0.314 N 
HETATM    9  C   UNL     1       5.726  -1.400   4.781  1.00  0.00     0.160 C 
HETATM   10  C   UNL     1       5.350  -2.091   2.476  1.00  0.00     0.331 C 
HETATM   11  O   UNL     1       4.149  -1.842   2.592  1.00  0.00    -0.246 OA
ENDBRANCH   2   3
ENDBRANCH   1   2
BRANCH   1  12
HETATM   12  O   UNL     1       3.468  -3.456  -1.389  1.00  0.00    -0.392 OA
HETATM   13  H   UNL     1       4.034  -3.676  -2.150  1.00  0.00     0.210 HD
ENDBRANCH   1  12
BRANCH   1  14
HETATM   14  C   UNL     1       5.036  -5.004  -0.331  1.00  0.00     0.209 C 
BRANCH  14  15
HETATM   15  O   UNL     1       4.128  -6.081  -0.578  1.00  0.00    -0.349 OA
BRANCH  15  16
HETATM   16  C   UNL     1       4.664  -7.327  -0.755  1.00  0.00     0.068 A 
HETATM   17  C   UNL     1       6.015  -7.663  -0.670  1.00  0.00     0.037 A 
HETATM   18  C   UNL     1       6.423  -8.986  -0.874  1.00  0.00     0.003 A 
HETATM   19  C   UNL     1       5.482  -9.975  -1.160  1.00  0.00     0.000 A 
HETATM   20  C   UNL     1       4.133  -9.644  -1.246  1.00  0.00     0.003 A 
HETATM   21  C   UNL     1       3.728  -8.325  -1.042  1.00  0.00     0.037 A 
ENDBRANCH  15  16
ENDBRANCH  14  15
ENDBRANCH   1  14
TORSDOF 6
