REMARK  4 active torsions:
REMARK  status: ('A' for Active; 'I' for Inactive)
REMARK    1  A    between atoms: C_8  and  N_9 
REMARK       I    between atoms: N_9  and  C_10 
REMARK       I    between atoms: C_10  and  N_12 
REMARK    2  A    between atoms: N_12  and  C_13 
REMARK    3  A    between atoms: C_15  and  C_16 
REMARK    4  A    between atoms: C_16  and  O_17 
ROOT
HETATM    1  N   UNL     1       9.444   1.573  -1.874  1.00  0.00    -0.295 N 
HETATM    2  C   UNL     1       9.574   2.896  -2.202  1.00  0.00     0.322 C 
HETATM    3  O   UNL     1       9.805   3.227  -3.364  1.00  0.00    -0.247 OA
HETATM    4  N   UNL     1       9.457   3.780  -1.181  1.00  0.00    -0.335 N 
HETATM    5  H   UNL     1       9.578   0.949  -2.655  1.00  0.00     0.172 HD
HETATM    6  H   UNL     1       9.189   3.365  -0.292  1.00  0.00     0.164 HD
ENDROOT
BRANCH   1   7
HETATM    7  C   UNL     1       9.146   1.021  -0.618  1.00  0.00     0.109 A 
HETATM    8  N   UNL     1       8.924   1.850   0.426  1.00  0.00    -0.346 N 
HETATM    9  C   UNL     1       8.620   1.322   1.631  1.00  0.00     0.007 A 
ATOM     10  HN  UNL     1       8.985   2.861   0.305  1.00  0.00     0.167 HD
HETATM   11  C   UNL     1       8.529  -0.045   1.838  1.00  0.00     0.031 A 
HETATM   12  C   UNL     1       8.371   2.307   2.732  1.00  0.00     0.068 C 
HETATM   13  C   UNL     1       8.766  -0.907   0.763  1.00  0.00    -0.057 A 
HETATM   14  C   UNL     1       8.678  -2.393   0.941  1.00  0.00     0.048 C 
HETATM   15  C   UNL     1       9.076  -0.359  -0.488  1.00  0.00     0.055 A 
ENDBRANCH   1   7
BRANCH   4  16
HETATM   16  C   UNL     1       9.558   5.208  -1.274  1.00  0.00     0.109 C 
HETATM   17  C   UNL     1       8.220   5.887  -1.609  1.00  0.00     0.040 C 
HETATM   18  C   UNL     1       8.100   7.091  -0.655  1.00  0.00     0.034 C 
HETATM   19  C   UNL     1       9.030   6.713   0.463  1.00  0.00    -0.022 C 
HETATM   20  C   UNL     1       9.836   5.708   0.108  1.00  0.00    -0.005 C 
BRANCH  18  21
HETATM   21  C   UNL     1       6.654   7.336  -0.218  1.00  0.00     0.172 C 
BRANCH  21  22
HETATM   22  O   UNL     1       6.560   8.482   0.624  1.00  0.00    -0.400 OA
HETATM   23  H   UNL     1       7.000   8.259   1.463  1.00  0.00     0.209 HD
ENDBRANCH  21  22
ENDBRANCH  18  21
ENDBRANCH   4  16
TORSDOF 4
