REMARK  6 active torsions:
REMARK  status: ('A' for Active; 'I' for Inactive)
REMARK    1  A    between atoms: C_2  and  C_4 
REMARK    2  A    between atoms: C_4  and  N_5 
REMARK    3  A    between atoms: C_10  and  C_11 
REMARK    4  A    between atoms: C_11  and  C_12 
REMARK       I    between atoms: C_12  and  N_14 
REMARK    5  A    between atoms: N_14  and  C_15 
REMARK    6  A    between atoms: C_15  and  C_16 
ROOT
HETATM    1  N   UNL     1       4.697   0.898  -1.233  1.00  0.00    -0.296 N 
HETATM    2  N   UNL     1       5.176  -0.345  -1.372  1.00  0.00    -0.302 N 
ATOM      3  HN  UNL     1       4.644  -1.204  -1.513  1.00  0.00     0.186 HD
HETATM    4  C   UNL     1       6.501  -0.216  -1.286  1.00  0.00     0.030 A 
HETATM    5  C   UNL     1       7.322  -1.452  -1.337  1.00  0.00     0.070 C 
HETATM    6  C   UNL     1       6.891   1.149  -1.161  1.00  0.00    -0.002 A 
HETATM    7  C   UNL     1       5.685   1.848  -1.176  1.00  0.00     0.033 A 
HETATM    8  C   UNL     1       5.403   3.307  -1.148  1.00  0.00     0.070 C 
ENDROOT
BRANCH   6   9
HETATM    9  C   UNL     1       8.257   1.764  -1.101  1.00  0.00     0.145 C 
BRANCH   9  10
HETATM   10  C   UNL     1       9.387   0.856  -0.660  1.00  0.00     0.222 C 
HETATM   11  O   UNL     1      10.048   0.212  -1.476  1.00  0.00    -0.273 OA
HETATM   12  N   UNL     1       9.665   0.829   0.694  1.00  0.00    -0.358 N 
HETATM   13  H   UNL     1       8.911   1.043   1.338  1.00  0.00     0.162 HD
BRANCH  12  14
HETATM   14  C   UNL     1      10.699  -0.086   1.157  1.00  0.00     0.154 C 
BRANCH  14  15
HETATM   15  C   UNL     1      11.035   0.003   2.648  1.00  0.00     0.139 C 
HETATM   16  C   UNL     1      12.159  -0.961   3.023  1.00  0.00     0.035 C 
HETATM   17  C   UNL     1      11.732  -1.582   4.335  1.00  0.00     0.029 C 
HETATM   18  C   UNL     1      10.449  -0.867   4.693  1.00  0.00     0.168 C 
HETATM   19  O   UNL     1       9.910  -0.380   3.457  1.00  0.00    -0.384 OA
ENDBRANCH  14  15
ENDBRANCH  12  14
ENDBRANCH   9  10
ENDBRANCH   6   9
BRANCH   1  20
HETATM   20  C   UNL     1       3.255   1.062  -1.113  1.00  0.00     0.152 C 
BRANCH  20  21
HETATM   21  C   UNL     1       2.638   0.152  -0.030  1.00  0.00    -0.003 C 
HETATM   22  C   UNL     1       3.172   0.494   1.364  1.00  0.00     0.011 C 
HETATM   23  C   UNL     1       1.113   0.239  -0.044  1.00  0.00     0.011 C 
ENDBRANCH  20  21
ENDBRANCH   1  20
TORSDOF 6
