REMARK  3 active torsions:
REMARK  status: ('A' for Active; 'I' for Inactive)
REMARK    1  A    between atoms: C_7  and  C_8 
REMARK    2  A    between atoms: C_8  and  C_9 
REMARK    3  A    between atoms: C_9  and  N_10 
ROOT
HETATM    1  C   UNL     2       1.152   0.499   0.491  1.00  0.00     0.090 C 
HETATM    2  C   UNL     2       2.639   0.403   0.396  1.00  0.00     0.093 A 
HETATM    3  N   UNL     2       3.453   1.462   0.247  1.00  0.00    -0.334 N 
ATOM      4  HN  UNL     2       3.206   2.449   0.176  1.00  0.00     0.168 HD
HETATM    5  C   UNL     2       4.677   0.898   0.215  1.00  0.00     0.098 A 
HETATM    6  N   UNL     2       4.620  -0.443   0.341  1.00  0.00    -0.288 N 
ATOM      7  HN  UNL     2       5.406  -1.093   0.350  1.00  0.00     0.188 HD
HETATM    8  N   UNL     2       3.337  -0.743   0.451  1.00  0.00    -0.288 N 
HETATM    9  H   UNL     2       2.962  -1.711   0.569  1.00  0.00     0.188 HD
ENDROOT
BRANCH   5  10
HETATM   10  C   UNL     2       5.947   1.683   0.092  1.00  0.00     0.107 C 
BRANCH  10  11
HETATM   11  C   UNL     2       6.733   1.300  -1.164  1.00  0.00     0.274 C 
BRANCH  11  12
HETATM   12  N   UNL     2       7.952   2.099  -1.249  1.00  0.00     0.078 N 
HETATM   13  H   UNL     2       7.695   3.109  -1.347  1.00  0.00     0.312 HD
HETATM   14  H   UNL     2       8.477   1.820  -2.109  1.00  0.00     0.312 HD
ENDBRANCH  11  12
ENDBRANCH  10  11
ENDBRANCH   5  10
TORSDOF 3
