REMARK  7 active torsions:
REMARK  status: ('A' for Active; 'I' for Inactive)
REMARK    1  A    between atoms: N_5  and  C_6 
REMARK    2  A    between atoms: C_6  and  C_7 
REMARK       I    between atoms: C_7  and  N_9 
REMARK    3  A    between atoms: N_9  and  C_10 
REMARK    4  A    between atoms: C_10  and  C_11 
REMARK    5  A    between atoms: C_16  and  C_17 
REMARK    6  A    between atoms: C_17  and  C_18 
REMARK    7  A    between atoms: C_18  and  O_19 
ROOT
HETATM    1  C   UNL     1       1.159   0.140   0.052  1.00  0.00     0.070 C 
HETATM    2  C   UNL     1       2.641   0.051  -0.001  1.00  0.00     0.030 A 
HETATM    3  N   UNL     1       3.234  -1.143  -0.082  1.00  0.00    -0.302 N 
ATOM      4  HN  UNL     1       2.788  -2.057  -0.164  1.00  0.00     0.186 HD
HETATM    5  N   UNL     1       4.552  -0.871  -0.031  1.00  0.00    -0.287 N 
HETATM    6  C   UNL     1       4.825   0.474   0.013  1.00  0.00     0.033 A 
HETATM    7  C   UNL     1       6.194   1.051   0.055  1.00  0.00     0.070 C 
HETATM    8  C   UNL     1       3.592   1.108   0.019  1.00  0.00    -0.009 A 
ENDROOT
BRANCH   5   9
HETATM    9  C   UNL     1       5.476  -1.991   0.031  1.00  0.00     0.251 C 
BRANCH   9  10
HETATM   10  C   UNL     1       6.365  -2.074  -1.186  1.00  0.00     0.237 C 
HETATM   11  O   UNL     1       7.589  -2.007  -1.088  1.00  0.00    -0.272 OA
HETATM   12  N   UNL     1       5.715  -2.283  -2.381  1.00  0.00    -0.359 N 
HETATM   13  H   UNL     1       4.701  -2.268  -2.398  1.00  0.00     0.162 HD
BRANCH  12  14
HETATM   14  C   UNL     1       6.415  -2.378  -3.642  1.00  0.00     0.127 C 
BRANCH  14  15
HETATM   15  C   UNL     1       6.057  -1.199  -4.491  1.00  0.00     0.003 A 
HETATM   16  C   UNL     1       4.653  -1.025  -5.014  1.00  0.00     0.007 A 
HETATM   17  C   UNL     1       5.767  -1.372  -5.962  1.00  0.00     0.007 A 
ENDBRANCH  14  15
ENDBRANCH  12  14
ENDBRANCH   9  10
ENDBRANCH   5   9
BRANCH   8  18
HETATM   18  C   UNL     1       3.318   2.581   0.066  1.00  0.00     0.068 C 
BRANCH  18  19
HETATM   19  C   UNL     1       3.267   3.227  -1.319  1.00  0.00     0.168 C 
BRANCH  19  20
HETATM   20  O   UNL     1       2.170   2.740  -2.086  1.00  0.00    -0.401 OA
HETATM   21  H   UNL     1       2.380   1.816  -2.314  1.00  0.00     0.209 HD
ENDBRANCH  19  20
ENDBRANCH  18  19
ENDBRANCH   8  18
TORSDOF 7
