REMARK  5 active torsions:
REMARK  status: ('A' for Active; 'I' for Inactive)
REMARK    1  A    between atoms: C_2  and  C_5 
REMARK    2  A    between atoms: C_9  and  N_10 
REMARK       I    between atoms: N_10  and  C_11 
REMARK       I    between atoms: C_11  and  N_13 
REMARK    3  A    between atoms: N_13  and  C_14 
REMARK    4  A    between atoms: C_16  and  C_17 
REMARK    5  A    between atoms: C_17  and  O_18 
ROOT
HETATM    1  N   UNL     1       3.764  -3.417   4.583  1.00  0.00    -0.306 N 
HETATM    2  C   UNL     1       3.605  -4.782   4.574  1.00  0.00     0.321 C 
HETATM    3  O   UNL     1       3.213  -5.440   3.616  1.00  0.00    -0.247 OA
HETATM    4  N   UNL     1       3.911  -5.398   5.766  1.00  0.00    -0.335 N 
HETATM    5  H   UNL     1       4.107  -2.986   5.427  1.00  0.00     0.171 HD
HETATM    6  H   UNL     1       4.544  -4.952   6.412  1.00  0.00     0.164 HD
ENDROOT
BRANCH   1   7
HETATM    7  C   UNL     1       3.473  -2.579   3.474  1.00  0.00     0.067 A 
HETATM    8  C   UNL     1       2.876  -3.002   2.302  1.00  0.00     0.120 A 
HETATM    9  N   UNL     1       2.597  -2.201   1.251  1.00  0.00    -0.353 N 
HETATM   10  C   UNL     1       2.897  -0.898   1.369  1.00  0.00     0.088 A 
ATOM     11  HN  UNL     1       2.174  -2.572   0.400  1.00  0.00     0.166 HD
HETATM   12  N   UNL     1       3.495  -0.373   2.459  1.00  0.00    -0.353 N 
HETATM   13  C   UNL     1       3.761  -1.226   3.485  1.00  0.00     0.120 A 
ATOM     14  HN  UNL     1       3.736   0.617   2.511  1.00  0.00     0.166 HD
BRANCH  10  15
HETATM   15  C   UNL     1       2.514  -0.005   0.190  1.00  0.00     0.007 C 
HETATM   16  C   UNL     1       1.186  -0.503  -0.424  1.00  0.00     0.022 C 
HETATM   17  C   UNL     1       3.612  -0.067  -0.885  1.00  0.00     0.022 C 
HETATM   18  C   UNL     1       2.315   1.456   0.628  1.00  0.00     0.022 C 
ENDBRANCH  10  15
ENDBRANCH   1   7
BRANCH   4  19
HETATM   19  C   UNL     1       3.768  -6.835   5.805  1.00  0.00     0.109 C 
HETATM   20  C   UNL     1       4.829  -7.588   4.990  1.00  0.00     0.040 C 
HETATM   21  C   UNL     1       4.922  -8.956   5.672  1.00  0.00     0.034 C 
HETATM   22  C   UNL     1       4.613  -8.579   7.100  1.00  0.00    -0.022 C 
HETATM   23  C   UNL     1       3.992  -7.392   7.171  1.00  0.00    -0.005 C 
BRANCH  21  24
HETATM   24  C   UNL     1       6.281  -9.617   5.451  1.00  0.00     0.172 C 
BRANCH  24  25
HETATM   25  O   UNL     1       6.281 -10.946   5.965  1.00  0.00    -0.400 OA
HETATM   26  H   UNL     1       6.163 -10.886   6.928  1.00  0.00     0.209 HD
ENDBRANCH  24  25
ENDBRANCH  21  24
ENDBRANCH   4  19
TORSDOF 5
