REMARK  7 active torsions:
REMARK  status: ('A' for Active; 'I' for Inactive)
REMARK    1  A    between atoms: O_2  and  C_3 
REMARK    2  A    between atoms: C_3  and  C_4 
REMARK    3  A    between atoms: C_4  and  O_5 
REMARK    4  A    between atoms: O_5  and  C_6 
REMARK    5  A    between atoms: C_9  and  C_10 
REMARK    6  A    between atoms: C_10  and  N_11 
REMARK    7  A    between atoms: N_11  and  C_12 
ROOT
HETATM    1  C   UNL     1       6.294   1.947  -1.844  1.00  0.00     0.141 A 
HETATM    2  C   UNL     1       7.374   1.539  -1.079  1.00  0.00     0.057 A 
HETATM    3  C   UNL     1       8.651   1.672  -1.613  1.00  0.00     0.014 A 
HETATM    4  C   UNL     1       8.817   2.225  -2.885  1.00  0.00    -0.015 A 
HETATM    5  C   UNL     1       7.662   2.597  -3.571  1.00  0.00     0.099 A 
HETATM    6  N   UNL     1       6.402   2.467  -3.084  1.00  0.00    -0.346 N 
ATOM      7  HN  UNL     1       5.583   2.746  -3.625  1.00  0.00     0.167 HD
ENDROOT
BRANCH   4   8
HETATM    8  C   UNL     1      10.192   2.474  -3.448  1.00  0.00     0.310 C 
BRANCH   8   9
HETATM    9  N   UNL     1      10.973   1.239  -3.525  1.00  0.00     0.094 N 
HETATM   10  H   UNL     1      10.488   0.579  -4.133  1.00  0.00     0.316 HD
BRANCH   9  11
HETATM   11  C   UNL     1      12.330   1.462  -4.032  1.00  0.00     0.251 C 
HETATM   12  C   UNL     1      13.104   0.148  -4.151  1.00  0.00     0.072 C 
HETATM   13  C   UNL     1      14.569   0.501  -3.845  1.00  0.00     0.220 C 
HETATM   14  C   UNL     1      15.534  -0.075  -4.880  1.00  0.00     0.043 C 
HETATM   15  N   UNL     1      14.625   1.960  -3.598  1.00  0.00     0.090 N 
HETATM   16  C   UNL     1      15.044   2.761  -4.744  1.00  0.00     0.310 C 
HETATM   17  C   UNL     1      13.261   2.310  -3.158  1.00  0.00     0.307 C 
ENDBRANCH   9  11
ENDBRANCH   8   9
ENDBRANCH   4   8
BRANCH   1  18
HETATM   18  O   UNL     1       5.072   1.898  -1.212  1.00  0.00    -0.334 OA
BRANCH  18  19
HETATM   19  C   UNL     1       3.955   1.798  -2.095  1.00  0.00     0.203 C 
BRANCH  19  20
HETATM   20  C   UNL     1       2.704   1.837  -1.219  1.00  0.00     0.193 C 
BRANCH  20  21
HETATM   21  O   UNL     1       1.527   1.636  -1.998  1.00  0.00    -0.394 OA
HETATM   22  C   UNL     1       0.361   1.680  -1.182  1.00  0.00     0.201 C 
ENDBRANCH  20  21
ENDBRANCH  19  20
ENDBRANCH  18  19
ENDBRANCH   1  18
TORSDOF 7
