REMARK  3 active torsions:
REMARK  status: ('A' for Active; 'I' for Inactive)
REMARK    1  A    between atoms: C_2  and  N_3 
REMARK    2  A    between atoms: C_2  and  C_13 
REMARK       I    between atoms: N_3  and  C_4 
REMARK       I    between atoms: C_4  and  N_6 
REMARK    3  A    between atoms: N_6  and  C_7 
REMARK       I    between atoms: C_13  and  N_15 
ROOT
HETATM    1  N   UNL     1       2.908   0.036  -1.448  1.00  0.00    -0.330 N 
HETATM    2  C   UNL     1       3.121  -1.091  -2.210  1.00  0.00     0.322 C 
HETATM    3  O   UNL     1       3.025  -2.214  -1.730  1.00  0.00    -0.247 OA
HETATM    4  N   UNL     1       3.373  -0.771  -3.516  1.00  0.00    -0.289 N 
HETATM    5  H   UNL     1       3.329   0.914  -1.729  1.00  0.00     0.165 HD
HETATM    6  H   UNL     1       3.164   0.158  -3.840  1.00  0.00     0.172 HD
ENDROOT
BRANCH   1   7
HETATM    7  C   UNL     1       2.551  -0.076  -0.037  1.00  0.00     0.174 C 
HETATM    8  C   UNL     1       1.036  -0.085   0.120  1.00  0.00     0.042 C 
BRANCH   7   9
HETATM    9  C   UNL     1       3.158   1.119   0.722  1.00  0.00     0.242 C 
HETATM   10  O   UNL     1       3.344   2.194   0.140  1.00  0.00    -0.271 OA
HETATM   11  N   UNL     1       3.448   0.953   2.060  1.00  0.00    -0.350 N 
HETATM   12  C   UNL     1       3.429  -0.294   2.812  1.00  0.00     0.126 C 
HETATM   13  C   UNL     1       3.997   2.026   2.861  1.00  0.00     0.126 C 
HETATM   14  C   UNL     1       4.254  -0.024   4.070  1.00  0.00     0.021 C 
HETATM   15  C   UNL     1       4.943   1.311   3.810  1.00  0.00     0.021 C 
ENDBRANCH   7   9
ENDBRANCH   1   7
BRANCH   4  16
HETATM   16  C   UNL     1       3.564  -1.734  -4.467  1.00  0.00     0.152 A 
HETATM   17  N   UNL     1       3.816  -3.009  -4.322  1.00  0.00    -0.346 N 
HETATM   18  C   UNL     1       3.871  -3.609  -5.562  1.00  0.00     0.097 A 
ATOM     19  HN  UNL     1       3.951  -3.485  -3.430  1.00  0.00     0.167 HD
HETATM   20  C   UNL     1       3.666  -2.769  -6.637  1.00  0.00     0.070 A 
HETATM   21  S   UNL     1       3.437  -1.164  -6.073  1.00  0.00    -0.064 SA
ENDBRANCH   4  16
TORSDOF 3
