REMARK  4 active torsions:
REMARK  status: ('A' for Active; 'I' for Inactive)
REMARK    1  A    between atoms: C_2  and  C_3 
REMARK    2  A    between atoms: C_2  and  N_10 
REMARK    3  A    between atoms: C_3  and  N_4 
REMARK       I    between atoms: N_10  and  C_11 
REMARK    4  A    between atoms: C_11  and  C_13 
ROOT
HETATM    1  N   UNL     1       3.125  -0.734   1.249  1.00  0.00    -0.355 N 
HETATM    2  C   UNL     1       4.489  -0.912   1.302  1.00  0.00     0.222 C 
HETATM    3  O   UNL     1       5.242  -0.320   0.533  1.00  0.00    -0.273 OA
HETATM    4  H   UNL     1       2.525  -1.213   1.911  1.00  0.00     0.162 HD
ENDROOT
BRANCH   1   5
HETATM    5  C   UNL     1       2.518   0.117   0.225  1.00  0.00     0.100 C 
HETATM    6  C   UNL     1       2.194  -0.722  -1.012  1.00  0.00     0.034 C 
BRANCH   5   7
HETATM    7  C   UNL     1       1.264   0.846   0.719  1.00  0.00     0.172 C 
BRANCH   7   8
HETATM    8  N   UNL     1       1.493   1.644   1.909  1.00  0.00    -0.302 N 
HETATM    9  C   UNL     1       2.300   2.740   2.029  1.00  0.00     0.111 A 
HETATM   10  C   UNL     1       2.162   3.174   3.325  1.00  0.00     0.037 A 
HETATM   11  C   UNL     1       1.242   2.280   3.905  1.00  0.00     0.108 A 
HETATM   12  N   UNL     1       0.838   1.342   3.047  1.00  0.00    -0.310 N 
ATOM     13  HN  UNL     1       0.186   0.576   3.213  1.00  0.00     0.186 HD
ENDBRANCH   7   8
ENDBRANCH   5   7
ENDBRANCH   1   5
BRANCH   2  14
HETATM   14  C   UNL     1       4.995  -1.834   2.417  1.00  0.00     0.078 C 
HETATM   15  C   UNL     1       6.526  -1.977   2.354  1.00  0.00     0.014 C 
HETATM   16  C   UNL     1       6.990  -2.820   1.163  1.00  0.00     0.001 C 
HETATM   17  C   UNL     1       6.299  -4.179   1.117  1.00  0.00     0.000 C 
HETATM   18  C   UNL     1       4.781  -4.060   1.205  1.00  0.00     0.001 C 
HETATM   19  C   UNL     1       4.345  -3.224   2.407  1.00  0.00     0.014 C 
ENDBRANCH   2  14
TORSDOF 4
