REMARK  7 active torsions:
REMARK  status: ('A' for Active; 'I' for Inactive)
REMARK    1  A    between atoms: S_2  and  C_3 
REMARK    2  A    between atoms: C_3  and  C_4 
REMARK    3  A    between atoms: C_3  and  C_6 
REMARK    4  A    between atoms: C_4  and  O_5 
REMARK    5  A    between atoms: C_6  and  N_8 
REMARK       I    between atoms: N_8  and  C_9 
REMARK    6  A    between atoms: C_9  and  C_11 
REMARK    7  A    between atoms: C_11  and  C_14 
ROOT
HETATM    1  N   UNL     1       5.317  -0.176  -3.095  1.00  0.00    -0.350 N 
HETATM    2  C   UNL     1       4.940  -1.098  -4.061  1.00  0.00     0.297 C 
HETATM    3  O   UNL     1       4.034  -1.910  -3.868  1.00  0.00    -0.266 OA
HETATM    4  H   UNL     1       6.034   0.499  -3.350  1.00  0.00     0.163 HD
ENDROOT
BRANCH   2   5
HETATM    5  C   UNL     1       5.735  -1.016  -5.392  1.00  0.00     0.364 C 
HETATM    6  F   UNL     1       6.964  -0.439  -5.164  1.00  0.00    -0.188 F 
HETATM    7  F   UNL     1       6.039  -2.280  -5.838  1.00  0.00    -0.188 F 
BRANCH   5   8
HETATM    8  C   UNL     1       4.921  -0.238  -6.420  1.00  0.00     0.091 A 
HETATM    9  C   UNL     1       3.984  -0.904  -7.214  1.00  0.00     0.032 A 
HETATM   10  C   UNL     1       3.282  -0.187  -8.180  1.00  0.00     0.003 A 
HETATM   11  C   UNL     1       3.527   1.171  -8.332  1.00  0.00     0.017 A 
HETATM   12  C   UNL     1       4.453   1.768  -7.493  1.00  0.00     0.088 A 
HETATM   13  N   UNL     1       5.145   1.101  -6.543  1.00  0.00    -0.364 N 
ATOM     14  HN  UNL     1       5.811   1.582  -5.939  1.00  0.00     0.165 HD
ENDBRANCH   5   8
ENDBRANCH   2   5
BRANCH   1  15
HETATM   15  C   UNL     1       4.803  -0.142  -1.719  1.00  0.00     0.096 C 
HETATM   16  C   UNL     1       5.318  -1.375  -0.965  1.00  0.00     0.033 C 
BRANCH  15  17
HETATM   17  C   UNL     1       3.256   0.045  -1.633  1.00  0.00     0.092 C 
BRANCH  17  18
HETATM   18  S   UNL     1       2.723   0.252   0.140  1.00  0.00    -0.165 SA
HETATM   19  C   UNL     1       0.923   0.193  -0.058  1.00  0.00     0.090 C 
ENDBRANCH  17  18
BRANCH  17  20
HETATM   20  C   UNL     1       2.789   1.269  -2.442  1.00  0.00     0.181 C 
BRANCH  20  21
HETATM   21  O   UNL     1       3.318   2.487  -1.918  1.00  0.00    -0.400 OA
HETATM   22  H   UNL     1       3.139   2.473  -0.959  1.00  0.00     0.209 HD
ENDBRANCH  20  21
ENDBRANCH  17  20
ENDBRANCH  15  17
ENDBRANCH   1  15
TORSDOF 7
