REMARK  5 active torsions:
REMARK  status: ('A' for Active; 'I' for Inactive)
REMARK    1  A    between atoms: CA_2  and  C_3 
REMARK    2  A    between atoms: CA_2  and  N_5 
REMARK    3  A    between atoms: C_3  and  O_4 
REMARK       I    between atoms: N_5  and  C_8 
REMARK    4  A    between atoms: C_8  and  C_10 
REMARK    5  A    between atoms: C_10  and  C_13 
ROOT
HETATM    1  C   UNK A   0       4.909  -1.179  -2.766  1.00  0.00     0.364 C 
HETATM    2  F   UNK A   0       5.783  -2.215  -2.533  1.00  0.00    -0.188 F 
HETATM    3  F   UNK A   0       3.849  -1.778  -3.409  1.00  0.00    -0.188 F 
ENDROOT
BRANCH   1   4
HETATM    4  C   UNK A   0       4.442  -0.576  -1.412  1.00  0.00     0.297 C 
ATOM      5  N   ALA A   1       3.085  -0.690  -1.148  1.00  0.00    -0.349 N 
ATOM      6  H   ALA A   1       2.469  -1.022  -1.889  1.00  0.00     0.163 HD
HETATM    7  O   UNK A   0       5.218  -0.066  -0.600  1.00  0.00    -0.266 OA
BRANCH   5   8
ATOM      8  CA  ALA A   1       2.479  -0.165   0.070  1.00  0.00     0.104 C 
ATOM      9  CB  ALA A   1       2.125   1.312  -0.101  1.00  0.00     0.034 C 
BRANCH   8  10
ATOM     10  C   ALA A   1       1.254  -1.007   0.465  1.00  0.00     0.189 C 
BRANCH  10  11
ATOM     11  O   ALA A   1       0.224  -0.930  -0.519  1.00  0.00    -0.399 OA
ATOM     12  H   ALA A   1      -0.220  -0.070  -0.413  1.00  0.00     0.209 HD
ENDBRANCH  10  11
ENDBRANCH   8  10
ENDBRANCH   5   8
ENDBRANCH   1   4
BRANCH   1  13
HETATM   13  C   UNK A   0       5.547  -0.078  -3.609  1.00  0.00     0.091 A 
HETATM   14  C   UNK A   0       6.919   0.164  -3.508  1.00  0.00     0.032 A 
HETATM   15  C   UNK A   0       7.483   1.194  -4.256  1.00  0.00     0.003 A 
HETATM   16  C   UNK A   0       6.672   1.955  -5.087  1.00  0.00     0.017 A 
HETATM   17  C   UNK A   0       5.322   1.655  -5.138  1.00  0.00     0.088 A 
HETATM   18  N   UNK A   0       4.743   0.668  -4.420  1.00  0.00    -0.364 N 
ATOM     19  HN  UNK A   0       3.741   0.487  -4.482  1.00  0.00     0.165 HD
ENDBRANCH   1  13
TORSDOF 5
