REMARK  7 active torsions:
REMARK  status: ('A' for Active; 'I' for Inactive)
REMARK    1  A    between atoms: N_5  and  C_6 
REMARK    2  A    between atoms: C_6  and  C_7 
REMARK    3  A    between atoms: C_7  and  O_8 
REMARK    4  A    between atoms: C_7  and  C_9 
REMARK    5  A    between atoms: C_9  and  O_10 
REMARK    6  A    between atoms: O_10  and  C_11 
REMARK    7  A    between atoms: C_11  and  C_12 
ROOT
HETATM    1  C   UNL     1       5.563   1.721  -0.069  1.00  0.00     0.168 C 
ENDROOT
BRANCH   1   2
HETATM    2  N   UNL     1       4.416   0.845  -0.057  1.00  0.00    -0.295 N 
HETATM    3  C   UNL     1       3.883   0.226   1.093  1.00  0.00     0.329 A 
HETATM    4  N   UNL     1       2.818  -0.585   0.647  1.00  0.00    -0.302 N 
HETATM    5  O   UNL     1       4.288   0.365   2.238  1.00  0.00    -0.246 OA
HETATM    6  C   UNL     1       2.011  -1.438   1.470  1.00  0.00     0.161 C 
HETATM    7  C   UNL     1       2.690  -0.443  -0.740  1.00  0.00     0.065 A 
HETATM    8  C   UNL     1       3.673   0.447  -1.177  1.00  0.00     0.066 A 
HETATM    9  C   UNL     1       1.798  -1.031  -1.617  1.00  0.00     0.032 A 
HETATM   10  C   UNL     1       3.804   0.792  -2.505  1.00  0.00     0.032 A 
HETATM   11  C   UNL     1       2.906   0.210  -3.408  1.00  0.00     0.002 A 
HETATM   12  C   UNL     1       1.915  -0.692  -2.969  1.00  0.00     0.002 A 
ENDBRANCH   1   2
BRANCH   1  13
HETATM   13  C   UNL     1       5.193   3.213   0.041  1.00  0.00     0.160 C 
BRANCH  13  14
HETATM   14  O   UNL     1       4.569   3.529   1.291  1.00  0.00    -0.392 OA
HETATM   15  H   UNL     1       4.909   2.919   1.972  1.00  0.00     0.210 HD
ENDBRANCH  13  14
BRANCH  13  16
HETATM   16  C   UNL     1       6.443   4.089  -0.107  1.00  0.00     0.201 C 
BRANCH  16  17
HETATM   17  O   UNL     1       7.048   3.838  -1.370  1.00  0.00    -0.384 OA
BRANCH  17  18
HETATM   18  C   UNL     1       8.231   4.608  -1.567  1.00  0.00     0.206 C 
BRANCH  18  19
HETATM   19  C   UNL     1       8.782   4.250  -2.922  1.00  0.00    -0.035 A 
HETATM   20  C   UNL     1       8.943   5.227  -3.913  1.00  0.00     0.009 A 
HETATM   21  C   UNL     1       9.428   4.879  -5.176  1.00  0.00     0.001 A 
HETATM   22  C   UNL     1       9.759   3.554  -5.458  1.00  0.00     0.000 A 
HETATM   23  C   UNL     1       9.614   2.577  -4.477  1.00  0.00     0.001 A 
HETATM   24  C   UNL     1       9.132   2.923  -3.214  1.00  0.00     0.009 A 
ENDBRANCH  18  19
ENDBRANCH  17  18
ENDBRANCH  16  17
ENDBRANCH  13  16
ENDBRANCH   1  13
TORSDOF 7
