REMARK  7 active torsions:
REMARK  status: ('A' for Active; 'I' for Inactive)
REMARK    1  A    between atoms: C_2  and  C_3 
REMARK    2  A    between atoms: C_3  and  C_4 
REMARK    3  A    between atoms: C_4  and  S_5 
REMARK    4  A    between atoms: S_5  and  N_8 
REMARK    5  A    between atoms: N_8  and  C_9 
REMARK    6  A    between atoms: C_9  and  C_10 
REMARK    7  A    between atoms: C_10  and  C_13 
ROOT
HETATM    1  C   UNL     1       8.765  -2.864   3.483  1.00  0.00     0.019 A 
HETATM    2  C   UNL     1       8.886  -1.725   4.497  1.00  0.00     0.018 A 
HETATM    3  C   UNL     1       9.474  -1.545   3.141  1.00  0.00     0.018 A 
ENDROOT
BRANCH   1   4
HETATM    4  C   UNL     1       7.368  -3.219   2.979  1.00  0.00     0.147 C 
BRANCH   4   5
HETATM    5  N   UNL     1       6.740  -2.210   2.107  1.00  0.00    -0.318 N 
HETATM    6  H   UNL     1       5.722  -2.208   2.112  1.00  0.00     0.172 HD
BRANCH   5   7
HETATM    7  S   UNL     1       7.461  -1.878   0.633  1.00  0.00     0.226 S 
HETATM    8  O   UNL     1       8.647  -2.691   0.496  1.00  0.00    -0.206 OA
HETATM    9  O   UNL     1       7.509  -0.435   0.512  1.00  0.00    -0.206 OA
BRANCH   7  10
HETATM   10  C   UNL     1       6.281  -2.455  -0.577  1.00  0.00     0.163 C 
BRANCH  10  11
HETATM   11  C   UNL     1       6.960  -2.373  -1.941  1.00  0.00     0.016 C 
BRANCH  11  12
HETATM   12  C   UNL     1       6.061  -2.774  -3.093  1.00  0.00    -0.004 C 
HETATM   13  C   UNL     1       6.847  -2.709  -4.395  1.00  0.00     0.005 C 
ENDBRANCH  11  12
ENDBRANCH  10  11
ENDBRANCH   7  10
ENDBRANCH   5   7
ENDBRANCH   4   5
ENDBRANCH   1   4
BRANCH   1  14
HETATM   14  C   UNL     1       9.633  -4.097   3.717  1.00  0.00     0.019 A 
HETATM   15  C   UNL     1      10.378  -4.656   2.675  1.00  0.00     0.026 A 
HETATM   16  C   UNL     1      11.134  -5.805   2.895  1.00  0.00     0.003 A 
HETATM   17  C   UNL     1      11.150  -6.368   4.161  1.00  0.00     0.017 A 
HETATM   18  C   UNL     1      10.396  -5.761   5.148  1.00  0.00     0.088 A 
HETATM   19  N   UNL     1       9.638  -4.660   4.951  1.00  0.00    -0.368 N 
ATOM     20  HN  UNL     1       9.084  -4.263   5.710  1.00  0.00     0.165 HD
ENDBRANCH   1  14
TORSDOF 7
