REMARK  3 active torsions:
REMARK  status: ('A' for Active; 'I' for Inactive)
REMARK    1  A    between atoms: C_2  and  N_3 
REMARK    2  A    between atoms: C_2  and  C_14 
REMARK       I    between atoms: N_3  and  C_4 
REMARK       I    between atoms: C_4  and  N_6 
REMARK    3  A    between atoms: N_6  and  C_7 
REMARK       I    between atoms: C_14  and  N_16 
ROOT
HETATM    1  N   UNL     1       2.969   1.172   0.726  1.00  0.00    -0.330 N 
HETATM    2  C   UNL     1       3.081   2.360   0.075  1.00  0.00     0.322 C 
HETATM    3  O   UNL     1       2.922   2.480  -1.138  1.00  0.00    -0.247 OA
HETATM    4  N   UNL     1       3.411   3.449   0.822  1.00  0.00    -0.295 N 
HETATM    5  H   UNL     1       2.988   1.223   1.743  1.00  0.00     0.165 HD
HETATM    6  H   UNL     1       3.503   4.290   0.272  1.00  0.00     0.172 HD
ENDROOT
BRANCH   1   7
HETATM    7  C   UNL     1       2.486  -0.045   0.094  1.00  0.00     0.174 C 
HETATM    8  C   UNL     1       0.959  -0.089   0.129  1.00  0.00     0.042 C 
BRANCH   7   9
HETATM    9  C   UNL     1       3.082  -1.331   0.720  1.00  0.00     0.242 C 
HETATM   10  O   UNL     1       2.354  -2.239   1.136  1.00  0.00    -0.271 OA
HETATM   11  N   UNL     1       4.450  -1.506   0.672  1.00  0.00    -0.350 N 
HETATM   12  C   UNL     1       5.038  -2.799   0.961  1.00  0.00     0.126 C 
HETATM   13  C   UNL     1       5.474  -0.538   0.330  1.00  0.00     0.126 C 
HETATM   14  C   UNL     1       6.469  -2.727   0.438  1.00  0.00     0.021 C 
HETATM   15  C   UNL     1       6.565  -1.390  -0.293  1.00  0.00     0.021 C 
ENDBRANCH   7   9
ENDBRANCH   1   7
BRANCH   4  16
HETATM   16  C   UNL     1       3.599   3.532   2.204  1.00  0.00     0.108 A 
HETATM   17  C   UNL     1       3.944   4.763   2.748  1.00  0.00     0.049 A 
HETATM   18  C   UNL     1       4.141   4.860   4.125  1.00  0.00     0.005 A 
HETATM   19  C   UNL     1       3.977   3.733   4.920  1.00  0.00     0.017 A 
HETATM   20  C   UNL     1       3.625   2.548   4.300  1.00  0.00     0.089 A 
HETATM   21  N   UNL     1       3.437   2.428   2.968  1.00  0.00    -0.352 N 
ATOM     22  HN  UNL     1       3.181   1.533   2.551  1.00  0.00     0.166 HD
ENDBRANCH   4  16
TORSDOF 3
