REMARK  7 active torsions:
REMARK  status: ('A' for Active; 'I' for Inactive)
REMARK    1  A    between atoms: O_2  and  C_3 
REMARK    2  A    between atoms: C_6  and  O_7 
REMARK    3  A    between atoms: O_7  and  C_8 
REMARK    4  A    between atoms: C_8  and  C_9 
REMARK    5  A    between atoms: C_9  and  O_10 
REMARK    6  A    between atoms: C_9  and  C_11 
REMARK    7  A    between atoms: C_11  and  N_12 
ROOT
HETATM    1  C   UNL     1       7.037   6.317   0.517  1.00  0.00     0.160 C 
ENDROOT
BRANCH   1   2
HETATM    2  C   UNL     1       6.647   4.828   0.440  1.00  0.00     0.209 C 
BRANCH   2   3
HETATM    3  O   UNL     1       7.240   4.172   1.568  1.00  0.00    -0.349 OA
BRANCH   3   4
HETATM    4  C   UNL     1       6.985   2.843   1.732  1.00  0.00     0.069 A 
HETATM    5  C   UNL     1       7.944   2.153   2.481  1.00  0.00     0.039 A 
HETATM    6  C   UNL     1       7.791   0.795   2.776  1.00  0.00     0.039 A 
HETATM    7  C   UNL     1       6.657   0.114   2.342  1.00  0.00     0.068 A 
HETATM    8  C   UNL     1       5.697   0.803   1.594  1.00  0.00     0.039 A 
HETATM    9  C   UNL     1       5.856   2.160   1.286  1.00  0.00     0.039 A 
BRANCH   7  10
HETATM   10  O   UNL     1       6.365  -1.199   2.590  1.00  0.00    -0.356 OA
HETATM   11  C   UNL     1       7.296  -1.925   3.384  1.00  0.00     0.210 C 
ENDBRANCH   7  10
ENDBRANCH   3   4
ENDBRANCH   2   3
ENDBRANCH   1   2
BRANCH   1  12
HETATM   12  O   UNL     1       6.420   6.870   1.689  1.00  0.00    -0.392 OA
HETATM   13  H   UNL     1       6.642   6.280   2.434  1.00  0.00     0.210 HD
ENDBRANCH   1  12
BRANCH   1  14
HETATM   14  C   UNL     1       8.562   6.505   0.581  1.00  0.00     0.164 C 
BRANCH  14  15
HETATM   15  N   UNL     1       8.982   7.899   0.556  1.00  0.00    -0.332 N 
HETATM   16  C   UNL     1       9.286   8.691   1.647  1.00  0.00     0.080 A 
HETATM   17  C   UNL     1       9.153   8.284   3.069  1.00  0.00     0.089 C 
HETATM   18  N   UNL     1       9.744   9.865   1.261  1.00  0.00    -0.344 N 
HETATM   19  C   UNL     1       9.730   9.844  -0.105  1.00  0.00     0.060 A 
ATOM     20  HN  UNL     1      10.047  10.633   1.860  1.00  0.00     0.167 HD
HETATM   21  C   UNL     1      10.127  10.842  -1.007  1.00  0.00     0.032 A 
HETATM   22  C   UNL     1       9.251   8.628  -0.584  1.00  0.00     0.062 A 
HETATM   23  C   UNL     1      10.027  10.589  -2.378  1.00  0.00     0.002 A 
HETATM   24  C   UNL     1       9.540   9.366  -2.841  1.00  0.00     0.002 A 
HETATM   25  C   UNL     1       9.141   8.356  -1.955  1.00  0.00     0.032 A 
ENDBRANCH  14  15
ENDBRANCH   1  14
TORSDOF 7
