REMARK  3 active torsions:
REMARK  status: ('A' for Active; 'I' for Inactive)
REMARK    1  A    between atoms: C_2  and  N_3 
REMARK    2  A    between atoms: C_2  and  C_14 
REMARK       I    between atoms: N_3  and  C_4 
REMARK       I    between atoms: C_4  and  N_6 
REMARK    3  A    between atoms: N_6  and  C_7 
REMARK       I    between atoms: C_14  and  N_16 
ROOT
HETATM    1  N   UNL     1       2.956  -0.815   1.219  1.00  0.00    -0.330 N 
HETATM    2  C   UNL     1       3.684  -0.202   2.214  1.00  0.00     0.321 C 
HETATM    3  O   UNL     1       4.048   0.963   2.108  1.00  0.00    -0.247 OA
HETATM    4  N   UNL     1       3.917  -1.035   3.283  1.00  0.00    -0.309 N 
HETATM    5  H   UNL     1       2.992  -1.821   1.152  1.00  0.00     0.165 HD
HETATM    6  H   UNL     1       3.479  -1.942   3.248  1.00  0.00     0.170 HD
ENDROOT
BRANCH   1   7
HETATM    7  C   UNL     1       2.623  -0.086  -0.008  1.00  0.00     0.174 C 
HETATM    8  C   UNL     1       1.107   0.028  -0.131  1.00  0.00     0.042 C 
BRANCH   7   9
HETATM    9  C   UNL     1       3.239  -0.841  -1.205  1.00  0.00     0.242 C 
HETATM   10  O   UNL     1       2.529  -1.435  -2.019  1.00  0.00    -0.271 OA
HETATM   11  N   UNL     1       4.618  -0.894  -1.290  1.00  0.00    -0.350 N 
HETATM   12  C   UNL     1       5.259  -1.730  -2.291  1.00  0.00     0.126 C 
HETATM   13  C   UNL     1       5.564   0.053  -0.716  1.00  0.00     0.126 C 
HETATM   14  C   UNL     1       6.704  -1.254  -2.357  1.00  0.00     0.021 C 
HETATM   15  C   UNL     1       6.647   0.155  -1.781  1.00  0.00     0.021 C 
ENDBRANCH   7   9
ENDBRANCH   1   7
BRANCH   4  16
HETATM   16  C   UNL     1       4.630  -0.709   4.459  1.00  0.00     0.038 A 
HETATM   17  C   UNL     1       5.213   0.536   4.682  1.00  0.00     0.046 A 
HETATM   18  C   UNL     1       5.895   0.750   5.866  1.00  0.00     0.090 A 
HETATM   19  N   UNL     1       6.040  -0.180   6.830  1.00  0.00    -0.375 N 
HETATM   20  C   UNL     1       5.466  -1.378   6.596  1.00  0.00     0.090 A 
ATOM     21  HN  UNL     1       6.555   0.011   7.689  1.00  0.00     0.164 HD
HETATM   22  C   UNL     1       4.757  -1.688   5.444  1.00  0.00     0.046 A 
ENDBRANCH   4  16
TORSDOF 3
