REMARK  4 active torsions:
REMARK  status: ('A' for Active; 'I' for Inactive)
REMARK    1  A    between atoms: O_2  and  C_3 
REMARK    2  A    between atoms: C_3  and  C_4 
REMARK    3  A    between atoms: C_4  and  N_5 
REMARK    4  A    between atoms: C_6  and  N_18 
ROOT
HETATM    1  N   UNL     1       4.719   0.670   2.564  1.00  0.00    -0.172 N 
HETATM    2  C   UNL     1       4.670   1.970   3.062  1.00  0.00     0.685 A 
HETATM    3  N   UNL     1       5.184   2.010   4.281  1.00  0.00    -0.174 N 
ATOM      4  HN  UNL     1       5.322   2.836   4.864  1.00  0.00     0.186 HD
HETATM    5  C   UNL     1       5.490   0.721   4.597  1.00  0.00     0.160 A 
HETATM    6  N   UNL     1       5.988   0.247   5.795  1.00  0.00    -0.287 N 
HETATM    7  C   UNL     1       6.222   1.096   6.943  1.00  0.00     0.163 C 
HETATM    8  C   UNL     1       6.233  -1.118   5.932  1.00  0.00     0.330 A 
HETATM    9  O   UNL     1       6.649  -1.639   6.968  1.00  0.00    -0.246 OA
HETATM   10  N   UNL     1       5.992  -1.917   4.835  1.00  0.00    -0.273 N 
HETATM   11  C   UNL     1       5.528  -1.516   3.606  1.00  0.00     0.280 A 
HETATM   12  O   UNL     1       5.396  -2.308   2.683  1.00  0.00    -0.265 OA
HETATM   13  C   UNL     1       5.251  -0.120   3.551  1.00  0.00     0.164 A 
HETATM   14  H   UNL     1       6.188  -2.899   4.947  1.00  0.00     0.173 HD
ENDROOT
BRANCH   2  15
HETATM   15  N   UNL     1       4.221   3.024   2.326  1.00  0.00    -0.214 N 
HETATM   16  C   UNL     1       4.781   4.367   2.577  1.00  0.00     0.171 C 
HETATM   17  C   UNL     1       3.728   5.388   3.068  1.00  0.00     0.290 C 
HETATM   18  N   UNL     1       2.499   5.421   2.251  1.00  0.00     0.086 N 
HETATM   19  C   UNL     1       1.930   4.067   2.260  1.00  0.00     0.290 C 
HETATM   20  H   UNL     1       2.756   5.654   1.292  1.00  0.00     0.316 HD
HETATM   21  C   UNL     1       2.885   2.994   1.709  1.00  0.00     0.171 C 
ENDBRANCH   2  15
BRANCH   1  22
HETATM   22  C   UNL     1       4.318   0.189   1.262  1.00  0.00     0.174 C 
BRANCH  22  23
HETATM   23  C   UNL     1       5.342   0.398   0.161  1.00  0.00     0.187 C 
BRANCH  23  24
HETATM   24  O   UNL     1       4.727  -0.012  -1.065  1.00  0.00    -0.394 OA
HETATM   25  C   UNL     1       5.609   0.080  -2.171  1.00  0.00     0.201 C 
ENDBRANCH  23  24
ENDBRANCH  22  23
ENDBRANCH   1  22
TORSDOF 4
