REMARK  7 active torsions:
REMARK  status: ('A' for Active; 'I' for Inactive)
REMARK    1  A    between atoms: N_2  and  C_15 
REMARK    2  A    between atoms: C_6  and  N_8 
REMARK       I    between atoms: N_9  and  C_14 
REMARK    3  A    between atoms: C_14  and  C_22 
REMARK    4  A    between atoms: C_15  and  C_19 
REMARK    5  A    between atoms: N_16  and  C_20 
REMARK    6  A    between atoms: C_19  and  O_30 
REMARK    7  A    between atoms: C_20  and  C_22 
ROOT
HETATM    1  C   UNL     1       0.364  -0.825   0.031  1.00  0.00     0.117 A 
HETATM    2  N   UNL     1       1.472   1.061  -0.125  1.00  0.00    -0.324 N 
HETATM    3  C   UNL     1       0.206   0.545  -0.135  1.00  0.00     0.140 A 
HETATM    4  N   UNL     1       1.716  -1.133   0.092  1.00  0.00    -0.346 N 
ATOM      5  HN  UNL     1       2.134  -2.059   0.182  1.00  0.00     0.167 HD
HETATM    6  C   UNL     1      -0.811  -1.620   0.132  1.00  0.00     0.114 A 
HETATM    7  C   UNL     1       2.344   0.018   0.010  1.00  0.00     0.185 A 
HETATM    8  N   UNL     1      -0.944   1.227  -0.256  1.00  0.00    -0.336 N 
ATOM      9  HN  UNL     1      -1.010   2.234  -0.405  1.00  0.00     0.168 HD
HETATM   10  N   UNL     1      -1.998  -0.943   0.042  1.00  0.00    -0.341 N 
ATOM     11  HN  UNL     1      -2.881  -1.448   0.122  1.00  0.00     0.167 HD
HETATM   12  C   UNL     1      -1.999   0.396  -0.153  1.00  0.00     0.183 A 
ENDROOT
BRANCH   6  13
HETATM   13  N   UNL     1      -0.855  -3.022   0.271  1.00  0.00    -0.264 NA
HETATM   14  C   UNL     1       0.444  -3.727   0.328  1.00  0.00     0.117 C 
HETATM   15  C   UNL     1       0.247  -5.262   0.281  1.00  0.00     0.140 C 
HETATM   16  N   UNL     1      -0.730  -5.729   1.283  1.00  0.00    -0.349 N 
HETATM   17  C   UNL     1      -2.022  -5.025   1.158  1.00  0.00     0.140 C 
HETATM   18  C   UNL     1      -0.330  -6.630   2.264  1.00  0.00     0.231 C 
HETATM   19  C   UNL     1      -1.837  -3.490   1.277  1.00  0.00     0.117 C 
HETATM   20  O   UNL     1       0.791  -7.151   2.225  1.00  0.00    -0.272 OA
BRANCH  18  21
HETATM   21  C   UNL     1      -1.260  -7.027   3.411  1.00  0.00     0.206 C 
BRANCH  21  22
HETATM   22  C   UNL     1      -1.587  -5.766   4.194  1.00  0.00    -0.069 C 
BRANCH  22  23
HETATM   23  N   UNL     1      -1.859  -4.719   4.843  1.00  0.00    -0.369 N 
ATOM     24  HN2 UNL     1      -1.664  -5.549   4.283  1.00  0.00     0.165 HD
ATOM     25  HN1 UNL     1      -2.078  -3.873   5.368  1.00  0.00     0.165 HD
ENDBRANCH  22  23
ENDBRANCH  21  22
ENDBRANCH  18  21
ENDBRANCH   6  13
BRANCH   2  26
HETATM   26  C   UNL     1       1.830   2.469  -0.074  1.00  0.00     0.171 C 
BRANCH  26  27
HETATM   27  C   UNL     1       2.132   3.123  -1.429  1.00  0.00     0.097 C 
HETATM   28  C   UNL     1       3.232   2.480  -2.252  1.00  0.00     0.068 C 
HETATM   29  C   UNL     1       3.770   3.634  -3.083  1.00  0.00     0.170 C 
HETATM   30  O   UNL     1       3.491   4.848  -2.378  1.00  0.00    -0.388 OA
HETATM   31  C   UNL     1       2.705   4.530  -1.220  1.00  0.00     0.207 C 
BRANCH  27  32
HETATM   32  O   UNL     1       0.948   3.230  -2.230  1.00  0.00    -0.386 OA
HETATM   33  H   UNL     1       0.443   2.397  -2.182  1.00  0.00     0.210 HD
ENDBRANCH  27  32
ENDBRANCH  26  27
ENDBRANCH   2  26
TORSDOF 7
