REMARK  2 active torsions:
REMARK  status: ('A' for Active; 'I' for Inactive)
REMARK    1  A    between atoms: C_7  and  N_8 
REMARK       I    between atoms: N_8  and  C_9 
REMARK       I    between atoms: C_9  and  N_11 
REMARK    2  A    between atoms: N_11  and  C_12 
ROOT
HETATM    1  N   UNL     1       2.725  -2.376   0.676  1.00  0.00    -0.338 N 
HETATM    2  C   UNL     1       3.256  -2.543   1.917  1.00  0.00     0.322 C 
HETATM    3  O   UNL     1       4.209  -1.893   2.344  1.00  0.00    -0.247 OA
HETATM    4  N   UNL     1       2.642  -3.464   2.719  1.00  0.00    -0.293 N 
HETATM    5  H   UNL     1       1.876  -2.899   0.479  1.00  0.00     0.164 HD
HETATM    6  H   UNL     1       2.988  -3.492   3.667  1.00  0.00     0.172 HD
ENDROOT
BRANCH   1   7
HETATM    7  C   UNL     1       3.126  -1.364  -0.274  1.00  0.00     0.089 C 
HETATM    8  C   UNL     1       2.553   0.028   0.074  1.00  0.00     0.004 C 
HETATM    9  C   UNL     1       1.021   0.056   0.193  1.00  0.00     0.012 C 
HETATM   10  C   UNL     1       3.043   1.044  -0.971  1.00  0.00     0.006 C 
HETATM   11  C   UNL     1       2.714   0.631  -2.406  1.00  0.00     0.001 C 
HETATM   12  C   UNL     1       3.195  -0.782  -2.728  1.00  0.00     0.002 C 
HETATM   13  C   UNL     1       2.734  -1.799  -1.693  1.00  0.00     0.026 C 
ENDBRANCH   1   7
BRANCH   4  14
HETATM   14  C   UNL     1       1.590  -4.290   2.380  1.00  0.00     0.132 A 
HETATM   15  C   UNL     1       0.836  -5.071   3.287  1.00  0.00     0.084 A 
HETATM   16  C   UNL     1      -0.129  -5.666   2.507  1.00  0.00     0.076 A 
HETATM   17  C   UNL     1      -1.282  -6.543   2.760  1.00  0.00     0.079 C 
HETATM   18  O   UNL     1       0.064  -5.315   1.213  1.00  0.00    -0.241 OA
HETATM   19  N   UNL     1       1.126  -4.449   1.133  1.00  0.00    -0.245 N 
ATOM     20  HN  UNL     1       1.491  -4.011   0.287  1.00  0.00     0.196 HD
ENDBRANCH   4  14
TORSDOF 2
