REMARK  7 active torsions:
REMARK  status: ('A' for Active; 'I' for Inactive)
REMARK    1  A    between atoms: C_2  and  C_3 
REMARK    2  A    between atoms: C_3  and  O_4 
REMARK    3  A    between atoms: C_3  and  C_5 
REMARK    4  A    between atoms: C_5  and  N_6 
REMARK    5  A    between atoms: N_6  and  C_7 
REMARK    6  A    between atoms: C_7  and  C_9 
REMARK    7  A    between atoms: C_9  and  N_11 
ROOT
HETATM    1  C   UNL     1       6.505  -0.307   2.840  1.00  0.00     0.240 C 
HETATM    2  C   UNL     1       7.124   1.031   2.400  1.00  0.00     0.045 C 
ENDROOT
BRANCH   1   3
HETATM    3  N   UNL     1       5.029  -0.219   2.816  1.00  0.00     0.092 N 
HETATM    4  H   UNL     1       4.618  -1.095   3.154  1.00  0.00     0.316 HD
BRANCH   3   5
HETATM    5  C   UNL     1       4.481   0.023   1.474  1.00  0.00     0.301 C 
BRANCH   5   6
HETATM    6  C   UNL     1       2.937  -0.008   1.499  1.00  0.00     0.145 C 
BRANCH   6   7
HETATM    7  C   UNL     1       2.381   0.317   0.106  1.00  0.00     0.029 C 
HETATM    8  C   UNL     1       0.861   0.374   0.080  1.00  0.00     0.007 C 
ENDBRANCH   6   7
BRANCH   6   9
HETATM    9  O   UNL     1       2.482  -1.296   1.921  1.00  0.00    -0.394 OA
HETATM   10  H   UNL     1       2.794  -1.949   1.270  1.00  0.00     0.210 HD
ENDBRANCH   6   9
ENDBRANCH   5   6
ENDBRANCH   3   5
ENDBRANCH   1   3
BRANCH   1  11
HETATM   11  C   UNL     1       7.068  -0.711   4.240  1.00  0.00     0.136 C 
HETATM   12  C   UNL     1       6.708   0.266   5.367  1.00  0.00     0.036 C 
BRANCH  11  13
HETATM   13  N   UNL     1       6.737  -2.096   4.575  1.00  0.00    -0.297 N 
HETATM   14  C   UNL     1       5.647  -2.561   5.261  1.00  0.00     0.112 A 
HETATM   15  C   UNL     1       5.795  -3.925   5.343  1.00  0.00     0.037 A 
HETATM   16  C   UNL     1       6.999  -4.193   4.672  1.00  0.00     0.108 A 
HETATM   17  N   UNL     1       7.573  -3.087   4.192  1.00  0.00    -0.310 N 
ATOM     18  HN  UNL     1       8.440  -3.008   3.660  1.00  0.00     0.186 HD
ENDBRANCH  11  13
ENDBRANCH   1  11
TORSDOF 7
