REMARK  4 active torsions:
REMARK  status: ('A' for Active; 'I' for Inactive)
REMARK    1  A    between atoms: C_2  and  N_3 
REMARK    2  A    between atoms: C_7  and  C_8 
REMARK    3  A    between atoms: C_8  and  N_9 
REMARK       I    between atoms: N_9  and  C_10 
REMARK       I    between atoms: C_10  and  N_12 
REMARK    4  A    between atoms: N_12  and  C_13 
ROOT
HETATM    1  N   UNL     1      -0.383   4.858  -0.096  1.00  0.00    -0.342 N 
HETATM    2  C   UNL     1      -0.229   6.197   0.089  1.00  0.00     0.321 C 
HETATM    3  O   UNL     1       0.636   6.894  -0.401  1.00  0.00    -0.247 OA
HETATM    4  N   UNL     1      -1.197   6.702   1.000  1.00  0.00    -0.293 N 
HETATM    5  H   UNL     1      -1.177   4.360   0.274  1.00  0.00     0.164 HD
HETATM    6  H   UNL     1      -1.799   6.056   1.482  1.00  0.00     0.172 HD
ENDROOT
BRANCH   1   7
HETATM    7  C   UNL     1       0.562   4.118  -0.918  1.00  0.00     0.130 C 
BRANCH   7   8
HETATM    8  C   UNL     1       1.324   3.050  -0.117  1.00  0.00     0.032 C 
HETATM    9  C   UNL     1       2.105   3.671   1.053  1.00  0.00     0.010 C 
HETATM   10  C   UNL     1       2.968   2.621   1.744  1.00  0.00     0.031 C 
HETATM   11  C   UNL     1       3.876   1.911   0.737  1.00  0.00     0.272 C 
HETATM   12  N   UNL     1       3.142   1.304  -0.386  1.00  0.00     0.088 N 
HETATM   13  C   UNL     1       2.289   2.294  -1.052  1.00  0.00     0.278 C 
BRANCH  12  14
HETATM   14  C   UNL     1       2.488   0.053   0.019  1.00  0.00     0.268 C 
HETATM   15  C   UNL     1       1.751  -0.678  -1.098  1.00  0.00     0.037 C 
ENDBRANCH  12  14
ENDBRANCH   7   8
ENDBRANCH   1   7
BRANCH   4  16
HETATM   16  C   UNL     1      -1.267   8.053   1.332  1.00  0.00     0.127 A 
HETATM   17  C   UNL     1      -0.703   9.117   0.664  1.00  0.00     0.076 A 
HETATM   18  C   UNL     1      -1.017  10.259   1.429  1.00  0.00     0.025 A 
HETATM   19  C   UNL     1      -0.590  11.657   1.177  1.00  0.00     0.070 C 
HETATM   20  N   UNL     1      -1.774   9.950   2.487  1.00  0.00    -0.302 N 
HETATM   21  N   UNL     1      -1.918   8.613   2.407  1.00  0.00    -0.281 N 
ATOM     22  HN  UNL     1      -2.155  10.581   3.192  1.00  0.00     0.186 HD
HETATM   23  C   UNL     1      -2.626   7.922   3.456  1.00  0.00     0.179 C 
ENDBRANCH   4  16
TORSDOF 4
