REMARK  3 active torsions:
REMARK  status: ('A' for Active; 'I' for Inactive)
REMARK    1  A    between atoms: C_2  and  C_3 
REMARK       I    between atoms: C_2  and  N_12 
REMARK    2  A    between atoms: C_3  and  N_4 
REMARK    3  A    between atoms: N_12  and  C_13 
ROOT
HETATM    1  C   UNL     1       2.699   0.199   1.212  1.00  0.00     0.235 C 
ENDROOT
BRANCH   1   2
HETATM    2  C   UNL     1       2.168  -0.059  -0.203  1.00  0.00     0.236 C 
HETATM    3  O   UNL     1       0.966  -0.054  -0.456  1.00  0.00    -0.272 OA
HETATM    4  N   UNL     1       3.155  -0.339  -1.127  1.00  0.00    -0.355 N 
HETATM    5  H   UNL     1       4.072  -0.564  -0.746  1.00  0.00     0.162 HD
BRANCH   4   6
HETATM    6  C   UNL     1       2.925  -0.688  -2.517  1.00  0.00     0.084 C 
HETATM    7  C   UNL     1       2.214   0.370  -3.374  1.00  0.00     0.025 C 
HETATM    8  C   UNL     1       1.298  -0.406  -4.326  1.00  0.00     0.002 C 
HETATM    9  C   UNL     1       1.697  -1.868  -4.183  1.00  0.00     0.002 C 
HETATM   10  C   UNL     1       2.134  -1.977  -2.731  1.00  0.00     0.025 C 
ENDBRANCH   4   6
ENDBRANCH   1   2
BRANCH   1  11
HETATM   11  N   UNL     1       2.820  -1.039   1.983  1.00  0.00    -0.301 N 
HETATM   12  C   UNL     1       1.783  -1.445   2.798  1.00  0.00     0.102 A 
HETATM   13  C   UNL     1       1.868  -2.546   3.549  1.00  0.00     0.092 A 
HETATM   14  C   UNL     1       3.102  -3.345   3.506  1.00  0.00     0.250 A 
HETATM   15  O   UNL     1       3.233  -4.350   4.196  1.00  0.00    -0.268 OA
HETATM   16  N   UNL     1       4.074  -2.889   2.660  1.00  0.00    -0.275 N 
HETATM   17  C   UNL     1       3.992  -1.773   1.869  1.00  0.00     0.329 A 
HETATM   18  H   UNL     1       4.924  -3.429   2.608  1.00  0.00     0.173 HD
HETATM   19  O   UNL     1       4.911  -1.465   1.111  1.00  0.00    -0.246 OA
ENDBRANCH   1  11
TORSDOF 3
