REMARK  5 active torsions:
REMARK  status: ('A' for Active; 'I' for Inactive)
REMARK    1  A    between atoms: C_2  and  N_7 
REMARK    2  A    between atoms: N_3  and  C_14 
REMARK    3  A    between atoms: C_14  and  C_15 
REMARK    4  A    between atoms: C_15  and  C_22 
REMARK    5  A    between atoms: C_22  and  O_24 
ROOT
HETATM    1  C   UNL     1       0.537  -0.643  -0.034  1.00  0.00     0.122 A 
HETATM    2  C   UNL     1      -0.629  -1.390  -0.394  1.00  0.00     0.136 A 
HETATM    3  N   UNL     1       1.774   1.195   0.049  1.00  0.00    -0.326 N 
HETATM    4  C   UNL     1       0.566   0.702  -0.394  1.00  0.00     0.140 A 
HETATM    5  N   UNL     1       1.733  -0.967   0.595  1.00  0.00    -0.346 N 
ATOM      6  HN  UNL     1       2.002  -1.875   0.973  1.00  0.00     0.167 HD
HETATM    7  C   UNL     1       2.449   0.142   0.603  1.00  0.00     0.185 A 
HETATM    8  N   UNL     1      -1.545  -0.726  -1.147  1.00  0.00    -0.337 N 
ATOM      9  HN  UNL     1      -2.373  -1.216  -1.484  1.00  0.00     0.168 HD
HETATM   10  N   UNL     1      -0.363   1.379  -1.078  1.00  0.00    -0.336 N 
ATOM     11  HN  UNL     1      -0.314   2.376  -1.288  1.00  0.00     0.168 HD
HETATM   12  C   UNL     1      -1.368   0.572  -1.451  1.00  0.00     0.183 A 
ENDROOT
BRANCH   3  13
HETATM   13  C   UNL     1       2.203   2.595  -0.007  1.00  0.00     0.143 C 
BRANCH  13  14
HETATM   14  C   UNL     1       2.900   3.074  -1.328  1.00  0.00     0.001 C 
HETATM   15  C   UNL     1       4.326   2.477  -1.424  1.00  0.00     0.039 C 
HETATM   16  C   UNL     1       5.325   3.221  -0.542  1.00  0.00     0.168 C 
HETATM   17  O   UNL     1       5.395   4.582  -0.939  1.00  0.00    -0.391 OA
HETATM   18  C   UNL     1       4.181   5.274  -0.679  1.00  0.00     0.168 C 
HETATM   19  C   UNL     1       3.002   4.634  -1.398  1.00  0.00     0.039 C 
BRANCH  14  20
HETATM   20  C   UNL     1       2.066   2.658  -2.567  1.00  0.00     0.175 C 
BRANCH  20  21
HETATM   21  O   UNL     1       0.787   3.288  -2.550  1.00  0.00    -0.400 OA
HETATM   22  H   UNL     1       0.203   2.739  -1.987  1.00  0.00     0.209 HD
ENDBRANCH  20  21
ENDBRANCH  14  20
ENDBRANCH  13  14
ENDBRANCH   3  13
BRANCH   2  23
HETATM   23  N   UNL     1      -0.867  -2.715  -0.101  1.00  0.00    -0.354 N 
HETATM   24  C   UNL     1      -1.938  -3.599  -0.642  1.00  0.00     0.057 C 
HETATM   25  C   UNL     1      -2.092  -3.582  -2.159  1.00  0.00     0.059 C 
HETATM   26  C   UNL     1      -3.362  -3.266  -0.144  1.00  0.00     0.198 C 
HETATM   27  C   UNL     1      -1.483  -5.004  -0.126  1.00  0.00     0.035 C 
HETATM   28  C   UNL     1      -3.339  -2.754  -2.414  1.00  0.00     0.170 C 
HETATM   29  O   UNL     1      -4.189  -2.957  -1.281  1.00  0.00    -0.389 OA
HETATM   30  C   UNL     1      -0.263  -4.763   0.760  1.00  0.00     0.022 C 
HETATM   31  C   UNL     1      -0.341  -3.298   1.126  1.00  0.00     0.125 C 
ENDBRANCH   2  23
TORSDOF 5
