REMARK  4 active torsions:
REMARK  status: ('A' for Active; 'I' for Inactive)
REMARK    1  A    between atoms: C_2  and  C_3 
REMARK    2  A    between atoms: C_2  and  N_10 
REMARK    3  A    between atoms: C_3  and  N_4 
REMARK       I    between atoms: N_10  and  C_11 
REMARK    4  A    between atoms: C_11  and  C_13 
ROOT
HETATM    1  N   UNL     1       3.105   1.380  -0.507  1.00  0.00    -0.355 N 
HETATM    2  C   UNL     1       4.472   1.493  -0.515  1.00  0.00     0.223 C 
HETATM    3  O   UNL     1       5.204   0.532  -0.268  1.00  0.00    -0.273 OA
HETATM    4  H   UNL     1       2.545   2.226  -0.526  1.00  0.00     0.162 HD
ENDROOT
BRANCH   1   5
HETATM    5  C   UNL     1       2.446   0.118  -0.124  1.00  0.00     0.100 C 
HETATM    6  C   UNL     1       0.925   0.288  -0.092  1.00  0.00     0.034 C 
BRANCH   5   7
HETATM    7  C   UNL     1       2.852  -1.120  -0.958  1.00  0.00     0.172 C 
BRANCH   7   8
HETATM    8  N   UNL     1       2.551  -1.005  -2.369  1.00  0.00    -0.302 N 
HETATM    9  C   UNL     1       3.368  -0.512  -3.345  1.00  0.00     0.111 A 
HETATM   10  C   UNL     1       2.666  -0.616  -4.523  1.00  0.00     0.037 A 
HETATM   11  C   UNL     1       1.446  -1.214  -4.157  1.00  0.00     0.108 A 
HETATM   12  N   UNL     1       1.374  -1.460  -2.846  1.00  0.00    -0.310 N 
ATOM     13  HN  UNL     1       0.609  -1.891  -2.327  1.00  0.00     0.186 HD
ENDBRANCH   7   8
ENDBRANCH   5   7
ENDBRANCH   1   5
BRANCH   2  14
HETATM   14  C   UNL     1       5.092   2.861  -0.770  1.00  0.00     0.096 C 
HETATM   15  C   UNL     1       5.282   3.646   0.526  1.00  0.00     0.025 C 
HETATM   16  C   UNL     1       4.044   4.428   0.929  1.00  0.00     0.103 C 
HETATM   17  C   UNL     1       3.509   5.267  -0.202  1.00  0.00     0.217 C 
HETATM   18  O   UNL     1       3.027   6.382  -0.037  1.00  0.00    -0.274 OA
HETATM   19  N   UNL     1       3.457   4.656  -1.426  1.00  0.00    -0.360 N 
HETATM   20  C   UNL     1       4.448   3.695  -1.870  1.00  0.00     0.136 C 
HETATM   21  H   UNL     1       3.087   5.283  -2.133  1.00  0.00     0.162 HD
ENDBRANCH   2  14
TORSDOF 4
