REMARK  2 active torsions:
REMARK  status: ('A' for Active; 'I' for Inactive)
REMARK       I    between atoms: C_2  and  N_3 
REMARK       I    between atoms: C_2  and  N_11 
REMARK    1  A    between atoms: N_3  and  C_4 
REMARK    2  A    between atoms: N_11  and  C_12 
ROOT
HETATM    1  O   UNL     1       2.447   1.568  -1.643  1.00  0.00    -0.247 OA
HETATM    2  C   UNL     1       2.939   0.776  -0.842  1.00  0.00     0.322 C 
HETATM    3  N   UNL     1       2.771   0.865   0.509  1.00  0.00    -0.338 N 
HETATM    4  N   UNL     1       3.775  -0.192  -1.301  1.00  0.00    -0.288 N 
HETATM    5  H   UNL     1       3.113   0.090   1.070  1.00  0.00     0.164 HD
HETATM    6  H   UNL     1       4.010  -0.136  -2.280  1.00  0.00     0.172 HD
ENDROOT
BRANCH   3   7
HETATM    7  C   UNL     1       2.139   1.972   1.219  1.00  0.00     0.086 C 
HETATM    8  C   UNL     1       0.629   2.024   0.949  1.00  0.00     0.025 C 
HETATM    9  C   UNL     1      -0.119   2.886   1.965  1.00  0.00     0.002 C 
HETATM   10  C   UNL     1      -0.205   4.365   1.604  1.00  0.00     0.000 C 
HETATM   11  C   UNL     1       1.060   5.010   1.046  1.00  0.00     0.000 C 
HETATM   12  C   UNL     1       2.361   4.518   1.672  1.00  0.00     0.002 C 
HETATM   13  C   UNL     1       2.912   3.276   0.974  1.00  0.00     0.025 C 
ENDBRANCH   3   7
BRANCH   4  14
HETATM   14  C   UNL     1       4.417  -1.114  -0.528  1.00  0.00     0.168 A 
HETATM   15  N   UNL     1       4.205  -1.417   0.734  1.00  0.00    -0.279 N 
HETATM   16  N   UNL     1       5.105  -2.357   1.192  1.00  0.00    -0.303 N 
ATOM     17  HN  UNL     1       3.465  -1.007   1.305  1.00  0.00     0.189 HD
HETATM   18  C   UNL     1       5.962  -2.703   0.255  1.00  0.00     0.160 A 
ATOM     19  HN  UNL     1       5.106  -2.737   2.139  1.00  0.00     0.186 HD
HETATM   20  S   UNL     1       5.693  -1.963  -1.272  1.00  0.00    -0.046 SA
ENDBRANCH   4  14
TORSDOF 2
