REMARK  5 active torsions:
REMARK  status: ('A' for Active; 'I' for Inactive)
REMARK    1  A    between atoms: O_2  and  C_3 
REMARK    2  A    between atoms: C_9  and  N_10 
REMARK       I    between atoms: N_10  and  C_11 
REMARK       I    between atoms: C_11  and  N_13 
REMARK    3  A    between atoms: N_13  and  C_14 
REMARK    4  A    between atoms: C_14  and  C_15 
REMARK    5  A    between atoms: C_15  and  C_16 
REMARK       I    between atoms: C_16  and  N_18 
ROOT
HETATM    1  N   UNL     1      -0.163  -3.355  -0.647  1.00  0.00    -0.305 N 
HETATM    2  C   UNL     1      -0.908  -2.315  -0.139  1.00  0.00     0.320 C 
HETATM    3  O   UNL     1      -1.690  -1.613  -0.771  1.00  0.00    -0.247 OA
HETATM    4  N   UNL     1      -0.680  -2.095   1.197  1.00  0.00    -0.342 N 
HETATM    5  H   UNL     1       0.679  -3.610  -0.148  1.00  0.00     0.171 HD
HETATM    6  H   UNL     1      -0.394  -2.888   1.761  1.00  0.00     0.164 HD
ENDROOT
BRANCH   1   7
HETATM    7  C   UNL     1      -0.277  -3.855  -1.973  1.00  0.00     0.087 A 
HETATM    8  C   UNL     1       0.753  -4.603  -2.559  1.00  0.00     0.169 A 
HETATM    9  N   UNL     1       0.707  -5.096  -3.824  1.00  0.00    -0.345 N 
HETATM   10  C   UNL     1      -0.396  -4.823  -4.549  1.00  0.00     0.090 A 
ATOM     11  HN  UNL     1       1.473  -5.648  -4.208  1.00  0.00     0.167 HD
HETATM   12  C   UNL     1      -1.466  -4.097  -4.067  1.00  0.00     0.019 A 
HETATM   13  C   UNL     1      -1.408  -3.625  -2.760  1.00  0.00     0.035 A 
BRANCH   8  14
HETATM   14  O   UNL     1       1.898  -4.835  -1.812  1.00  0.00    -0.339 OA
HETATM   15  C   UNL     1       2.994  -5.238  -2.638  1.00  0.00     0.211 C 
ENDBRANCH   8  14
ENDBRANCH   1   7
BRANCH   4  16
HETATM   16  C   UNL     1      -1.421  -1.057   1.904  1.00  0.00     0.133 C 
BRANCH  16  17
HETATM   17  C   UNL     1      -2.800  -1.512   2.384  1.00  0.00     0.122 C 
BRANCH  17  18
HETATM   18  C   UNL     1      -2.699  -2.552   3.483  1.00  0.00     0.221 C 
HETATM   19  O   UNL     1      -1.618  -3.038   3.821  1.00  0.00    -0.273 OA
HETATM   20  N   UNL     1      -3.876  -2.915   4.098  1.00  0.00    -0.352 N 
HETATM   21  C   UNL     1      -3.881  -3.843   5.213  1.00  0.00     0.126 C 
HETATM   22  C   UNL     1      -5.235  -2.575   3.712  1.00  0.00     0.126 C 
HETATM   23  C   UNL     1      -5.282  -3.751   5.811  1.00  0.00     0.021 C 
HETATM   24  C   UNL     1      -5.982  -2.638   5.032  1.00  0.00     0.021 C 
ENDBRANCH  17  18
ENDBRANCH  16  17
ENDBRANCH   4  16
TORSDOF 5
