REMARK  5 active torsions:
REMARK  status: ('A' for Active; 'I' for Inactive)
REMARK       I    between atoms: N_2  and  C_3 
REMARK    1  A    between atoms: C_3  and  C_5 
REMARK    2  A    between atoms: C_5  and  C_6 
REMARK    3  A    between atoms: C_9  and  C_10 
REMARK    4  A    between atoms: C_10  and  C_11 
REMARK    5  A    between atoms: C_11  and  C_12 
ROOT
HETATM    1  C   UNL     1       4.327  -1.615  -2.697  1.00  0.00     0.059 A 
HETATM    2  N   UNL     1       4.636  -1.164  -3.899  1.00  0.00    -0.356 N 
ATOM      3  HN  UNL     1       4.041  -0.561  -4.467  1.00  0.00     0.166 HD
HETATM    4  C   UNL     1       5.888  -1.629  -4.277  1.00  0.00     0.016 A 
HETATM    5  C   UNL     1       6.502  -2.445  -3.345  1.00  0.00     0.076 A 
HETATM    6  S   UNL     1       5.508  -2.628  -1.966  1.00  0.00    -0.086 SA
ENDROOT
BRANCH   4   7
HETATM    7  C   UNL     1       6.447  -1.228  -5.610  1.00  0.00     0.058 C 
BRANCH   7   8
HETATM    8  C   UNL     1       6.587  -2.423  -6.558  1.00  0.00     0.010 C 
BRANCH   8   9
HETATM    9  C   UNL     1       7.093  -2.047  -7.953  1.00  0.00    -0.014 C 
HETATM   10  C   UNL     1       7.228  -3.278  -8.863  1.00  0.00     0.004 C 
HETATM   11  C   UNL     1       8.432  -3.016  -9.770  1.00  0.00     0.000 C 
HETATM   12  C   UNL     1       8.916  -1.615  -9.429  1.00  0.00     0.000 C 
HETATM   13  C   UNL     1       8.484  -1.416  -7.984  1.00  0.00     0.004 C 
ENDBRANCH   8   9
ENDBRANCH   7   8
ENDBRANCH   4   7
BRANCH   1  14
HETATM   14  C   UNL     1       3.035  -1.343  -1.998  1.00  0.00     0.167 C 
BRANCH  14  15
HETATM   15  C   UNL     1       2.885   0.140  -1.730  1.00  0.00     0.223 C 
HETATM   16  N   UNL     1       2.803   0.926  -2.862  1.00  0.00    -0.365 N 
HETATM   17  C   UNL     1       2.719   2.359  -2.756  1.00  0.00     0.149 C 
HETATM   18  H   UNL     1       3.203   0.529  -3.711  1.00  0.00     0.161 HD
HETATM   19  O   UNL     1       2.773   0.591  -0.591  1.00  0.00    -0.273 OA
ENDBRANCH  14  15
ENDBRANCH   1  14
TORSDOF 5
