REMARK  5 active torsions:
REMARK  status: ('A' for Active; 'I' for Inactive)
REMARK    1  A    between atoms: C_2  and  N_3 
REMARK    2  A    between atoms: N_3  and  C_4 
REMARK    3  A    between atoms: N_3  and  C_6 
REMARK    4  A    between atoms: C_9  and  N_10 
REMARK       I    between atoms: N_10  and  C_11 
REMARK       I    between atoms: C_11  and  N_13 
REMARK    5  A    between atoms: N_13  and  C_14 
REMARK       I    between atoms: N_17  and  C_20 
ROOT
HETATM    1  N   UNL     1       8.564   0.751   1.658  1.00  0.00    -0.308 N 
HETATM    2  C   UNL     1       9.455  -0.295   1.523  1.00  0.00     0.321 C 
HETATM    3  O   UNL     1       9.165  -1.451   1.257  1.00  0.00    -0.247 OA
HETATM    4  N   UNL     1      10.748   0.129   1.713  1.00  0.00    -0.338 N 
HETATM    5  H   UNL     1       8.958   1.667   1.802  1.00  0.00     0.170 HD
HETATM    6  H   UNL     1      10.873   1.069   2.055  1.00  0.00     0.164 HD
ENDROOT
BRANCH   1   7
HETATM    7  C   UNL     1       7.155   0.677   1.611  1.00  0.00     0.051 A 
HETATM    8  C   UNL     1       6.432  -0.492   1.421  1.00  0.00     0.035 A 
HETATM    9  C   UNL     1       5.036  -0.464   1.480  1.00  0.00     0.051 A 
HETATM   10  C   UNL     1       4.369   0.729   1.745  1.00  0.00     0.102 A 
HETATM   11  N   UNL     1       5.058   1.883   1.889  1.00  0.00    -0.350 N 
HETATM   12  C   UNL     1       6.411   1.835   1.811  1.00  0.00     0.119 A 
ATOM     13  HN  UNL     1       4.574   2.766   2.052  1.00  0.00     0.166 HD
BRANCH  10  14
HETATM   14  N   UNL     1       2.979   0.711   1.960  1.00  0.00    -0.368 N 
BRANCH  14  15
HETATM   15  C   UNL     1       2.533   1.826   2.803  1.00  0.00     0.120 C 
HETATM   16  C   UNL     1       1.136   1.610   3.366  1.00  0.00     0.026 C 
ENDBRANCH  14  15
BRANCH  14  17
HETATM   17  C   UNL     1       2.175   0.317   0.795  1.00  0.00     0.120 C 
HETATM   18  C   UNL     1       2.140   1.362  -0.312  1.00  0.00     0.026 C 
ENDBRANCH  14  17
ENDBRANCH  10  14
ENDBRANCH   1   7
BRANCH   4  19
HETATM   19  C   UNL     1      11.989  -0.604   1.436  1.00  0.00     0.089 C 
HETATM   20  C   UNL     1      12.677   0.029   0.224  1.00  0.00     0.045 C 
HETATM   21  C   UNL     1      12.020  -0.457  -1.058  1.00  0.00     0.127 C 
HETATM   22  N   UNL     1      12.214  -1.895  -1.168  1.00  0.00    -0.352 N 
HETATM   23  C   UNL     1      11.584  -2.666  -0.096  1.00  0.00     0.127 C 
HETATM   24  C   UNL     1      12.818  -2.564  -2.220  1.00  0.00     0.215 C 
HETATM   25  C   UNL     1      11.943  -2.138   1.302  1.00  0.00     0.045 C 
HETATM   26  O   UNL     1      12.903  -3.796  -2.247  1.00  0.00    -0.274 OA
HETATM   27  C   UNL     1      13.432  -1.783  -3.358  1.00  0.00     0.117 C 
ENDBRANCH   4  19
TORSDOF 5
