REMARK  7 active torsions:
REMARK  status: ('A' for Active; 'I' for Inactive)
REMARK    1  A    between atoms: C_6  and  C_7 
REMARK    2  A    between atoms: C_7  and  N_8 
REMARK    3  A    between atoms: N_8  and  C_9 
REMARK    4  A    between atoms: C_9  and  C_10 
REMARK    5  A    between atoms: C_10  and  O_11 
REMARK    6  A    between atoms: C_10  and  C_12 
REMARK    7  A    between atoms: C_12  and  N_13 
ROOT
HETATM    1  C   UNL     1       2.745  -5.044  -5.261  1.00  0.00     0.164 C 
ENDROOT
BRANCH   1   2
HETATM    2  C   UNL     1       3.001  -4.876  -3.747  1.00  0.00     0.302 C 
BRANCH   2   3
HETATM    3  N   UNL     1       2.540  -3.550  -3.347  1.00  0.00     0.088 N 
HETATM    4  H   UNL     1       2.975  -2.842  -3.952  1.00  0.00     0.316 HD
BRANCH   3   5
HETATM    5  C   UNL     1       2.830  -3.218  -1.951  1.00  0.00     0.303 C 
BRANCH   5   6
HETATM    6  C   UNL     1       2.364  -1.773  -1.675  1.00  0.00     0.177 C 
HETATM    7  O   UNL     1       3.153  -0.870  -2.479  1.00  0.00    -0.381 OA
HETATM    8  C   UNL     1       2.729   0.484  -2.271  1.00  0.00     0.198 C 
HETATM    9  C   UNL     1       2.839   0.885  -0.789  1.00  0.00     0.298 C 
HETATM   10  N   UNL     1       2.139  -0.025   0.143  1.00  0.00     0.088 N 
HETATM   11  C   UNL     1       0.690   0.165   0.096  1.00  0.00     0.310 C 
HETATM   12  C   UNL     1       2.521  -1.418  -0.181  1.00  0.00     0.305 C 
ENDBRANCH   5   6
ENDBRANCH   3   5
ENDBRANCH   2   3
ENDBRANCH   1   2
BRANCH   1  13
HETATM   13  O   UNL     1       3.547  -4.096  -5.982  1.00  0.00    -0.392 OA
HETATM   14  H   UNL     1       4.469  -4.404  -5.999  1.00  0.00     0.210 HD
ENDBRANCH   1  13
BRANCH   1  15
HETATM   15  C   UNL     1       3.043  -6.476  -5.717  1.00  0.00     0.163 C 
BRANCH  15  16
HETATM   16  N   UNL     1       2.735  -6.709  -7.117  1.00  0.00    -0.339 N 
HETATM   17  C   UNL     1       1.499  -6.557  -7.686  1.00  0.00     0.184 A 
HETATM   18  N   UNL     1       1.494  -6.920  -8.947  1.00  0.00    -0.350 N 
HETATM   19  C   UNL     1       2.779  -7.326  -9.206  1.00  0.00     0.060 A 
ATOM     20  HN  UNL     1       0.706  -6.904  -9.594  1.00  0.00     0.166 HD
HETATM   21  C   UNL     1       3.326  -7.834 -10.392  1.00  0.00     0.039 A 
HETATM   22  C   UNL     1       3.586  -7.197  -8.080  1.00  0.00     0.062 A 
HETATM   23  C   UNL     1       4.679  -8.226 -10.430  1.00  0.00    -0.054 A 
HETATM   24  C   UNL     1       5.215  -8.806 -11.711  1.00  0.00     0.049 C 
HETATM   25  C   UNL     1       5.483  -8.083  -9.279  1.00  0.00    -0.054 A 
HETATM   26  C   UNL     1       6.929  -8.507  -9.240  1.00  0.00     0.049 C 
HETATM   27  C   UNL     1       4.940  -7.552  -8.089  1.00  0.00     0.039 A 
ENDBRANCH  15  16
ENDBRANCH   1  15
TORSDOF 7
