REMARK  5 active torsions:
REMARK  status: ('A' for Active; 'I' for Inactive)
REMARK    1  A    between atoms: S_2  and  N_4 
REMARK    2  A    between atoms: S_2  and  N_14 
REMARK    3  A    between atoms: N_4  and  C_5 
REMARK    4  A    between atoms: C_5  and  C_6 
REMARK    5  A    between atoms: C_6  and  C_7 
ROOT
HETATM    1  N   UNL     1       2.917   1.524   0.737  1.00  0.00    -0.206 NA
HETATM    2  H   UNL     1       3.931   1.427   0.804  1.00  0.00     0.140 HD
ENDROOT
BRANCH   1   3
HETATM    3  S   UNL     1       2.328   0.101   0.049  1.00  0.00     0.281 S 
HETATM    4  O   UNL     1       1.017   0.361  -0.494  1.00  0.00    -0.194 OA
HETATM    5  O   UNL     1       3.398  -0.422  -0.762  1.00  0.00    -0.194 OA
BRANCH   3   6
HETATM    6  N   UNL     1       2.146  -0.866   1.415  1.00  0.00    -0.194 NA
HETATM    7  C   UNL     1       3.382  -1.345   2.105  1.00  0.00     0.134 C 
HETATM    8  C   UNL     1       4.006  -2.557   1.392  1.00  0.00     0.183 C 
HETATM    9  O   UNL     1       3.055  -3.615   1.197  1.00  0.00    -0.389 OA
HETATM   10  C   UNL     1       1.913  -3.153   0.459  1.00  0.00     0.183 C 
HETATM   11  C   UNL     1       1.213  -2.024   1.220  1.00  0.00     0.134 C 
ENDBRANCH   3   6
ENDBRANCH   1   3
BRANCH   1  12
HETATM   12  C   UNL     1       2.543   2.726  -0.061  1.00  0.00     0.111 C 
BRANCH  12  13
HETATM   13  C   UNL     1       3.161   3.994   0.510  1.00  0.00     0.072 C 
BRANCH  13  14
HETATM   14  C   UNL     1       2.678   5.176  -0.294  1.00  0.00     0.010 A 
HETATM   15  C   UNL     1       1.522   5.861   0.075  1.00  0.00     0.025 A 
HETATM   16  C   UNL     1       1.045   6.871  -0.756  1.00  0.00     0.003 A 
HETATM   17  C   UNL     1       1.729   7.170  -1.927  1.00  0.00     0.017 A 
HETATM   18  C   UNL     1       2.871   6.446  -2.218  1.00  0.00     0.088 A 
HETATM   19  N   UNL     1       3.359   5.458  -1.431  1.00  0.00    -0.369 N 
ATOM     20  HN  UNL     1       4.205   4.947  -1.684  1.00  0.00     0.165 HD
ENDBRANCH  13  14
ENDBRANCH  12  13
ENDBRANCH   1  12
TORSDOF 5
