REMARK  6 active torsions:
REMARK  status: ('A' for Active; 'I' for Inactive)
REMARK    1  A    between atoms: C_2  and  N_3 
REMARK    2  A    between atoms: C_2  and  C_12 
REMARK    3  A    between atoms: N_3  and  C_4 
REMARK    4  A    between atoms: C_4  and  C_5 
REMARK    5  A    between atoms: C_5  and  N_6 
REMARK       I    between atoms: C_12  and  N_14 
REMARK    6  A    between atoms: N_14  and  C_15 
ROOT
HETATM    1  C   UNL     1       0.895  -0.045  -0.119  1.00  0.00     0.053 C 
HETATM    2  C   UNL     1       2.419  -0.059  -0.024  1.00  0.00     0.307 C 
ENDROOT
BRANCH   2   3
HETATM    3  N   UNL     1       2.944   1.327  -0.082  1.00  0.00     0.098 N 
HETATM    4  H   UNL     1       2.582   1.807   0.751  1.00  0.00     0.317 HD
BRANCH   3   5
HETATM    5  C   UNL     1       4.420   1.394  -0.005  1.00  0.00     0.292 C 
BRANCH   5   6
HETATM    6  C   UNL     1       5.145   0.745  -1.182  1.00  0.00     0.178 C 
BRANCH   6   7
HETATM    7  N   UNL     1       6.586   0.801  -1.034  1.00  0.00    -0.302 N 
HETATM    8  C   UNL     1       7.427   1.758  -1.522  1.00  0.00     0.111 A 
HETATM    9  C   UNL     1       8.698   1.348  -1.195  1.00  0.00     0.037 A 
HETATM   10  C   UNL     1       8.517   0.133  -0.509  1.00  0.00     0.108 A 
HETATM   11  N   UNL     1       7.231  -0.206  -0.411  1.00  0.00    -0.310 N 
ATOM     12  HN  UNL     1       6.830  -1.033   0.031  1.00  0.00     0.186 HD
ENDBRANCH   6   7
ENDBRANCH   5   6
ENDBRANCH   3   5
ENDBRANCH   2   3
BRANCH   2  13
HETATM   13  C   UNL     1       2.795  -0.734   1.308  1.00  0.00     0.251 C 
HETATM   14  O   UNL     1       2.826  -0.104   2.363  1.00  0.00    -0.271 OA
HETATM   15  N   UNL     1       3.060  -2.086   1.200  1.00  0.00    -0.351 N 
HETATM   16  H   UNL     1       3.075  -2.498   0.277  1.00  0.00     0.163 HD
BRANCH  15  17
HETATM   17  C   UNL     1       3.472  -2.931   2.329  1.00  0.00     0.022 C 
HETATM   18  C   UNL     1       2.386  -2.941   3.416  1.00  0.00     0.037 C 
HETATM   19  C   UNL     1       3.658  -4.373   1.821  1.00  0.00     0.037 C 
HETATM   20  C   UNL     1       4.812  -2.452   2.909  1.00  0.00     0.037 C 
ENDBRANCH  15  17
ENDBRANCH   2  13
TORSDOF 6
