REMARK  4 active torsions:
REMARK  status: ('A' for Active; 'I' for Inactive)
REMARK       I    between atoms: N_2  and  C_3 
REMARK    1  A    between atoms: C_3  and  C_5 
REMARK    2  A    between atoms: C_5  and  C_6 
REMARK    3  A    between atoms: C_10  and  C_11 
REMARK    4  A    between atoms: C_11  and  C_12 
ROOT
HETATM    1  C   UNL     1       9.466  -3.498   3.159  1.00  0.00     0.112 A 
HETATM    2  N   UNL     1       9.948  -3.635   4.401  1.00  0.00    -0.247 N 
ATOM      3  HN  UNL     1      10.916  -3.564   4.715  1.00  0.00     0.196 HD
HETATM    4  O   UNL     1       8.811  -3.898   5.161  1.00  0.00    -0.223 OA
HETATM    5  C   UNL     1       7.753  -3.890   4.297  1.00  0.00     0.148 A 
HETATM    6  N   UNL     1       8.097  -3.631   3.054  1.00  0.00    -0.326 N 
ATOM      7  HN  UNL     1       7.505  -3.550   2.227  1.00  0.00     0.169 HD
ENDROOT
BRANCH   5   8
HETATM    8  C   UNL     1       6.408  -4.090   4.900  1.00  0.00     0.091 C 
BRANCH   8   9
HETATM    9  C   UNL     1       5.978  -5.566   5.071  1.00  0.00    -0.007 C 
HETATM   10  C   UNL     1       6.965  -6.354   5.956  1.00  0.00     0.005 C 
HETATM   11  C   UNL     1       6.380  -7.655   6.506  1.00  0.00     0.000 C 
HETATM   12  C   UNL     1       6.520  -8.871   5.596  1.00  0.00     0.000 C 
HETATM   13  C   UNL     1       6.346  -8.631   4.101  1.00  0.00     0.000 C 
HETATM   14  C   UNL     1       5.222  -7.666   3.743  1.00  0.00     0.000 C 
HETATM   15  C   UNL     1       5.687  -6.209   3.704  1.00  0.00     0.005 C 
ENDBRANCH   8   9
ENDBRANCH   5   8
BRANCH   1  16
HETATM   16  C   UNL     1      10.330  -3.128   2.014  1.00  0.00     0.181 C 
BRANCH  16  17
HETATM   17  C   UNL     1      10.342  -4.204   0.952  1.00  0.00     0.224 C 
HETATM   18  N   UNL     1       9.157  -4.340   0.256  1.00  0.00    -0.365 N 
HETATM   19  C   UNL     1       9.005  -5.363  -0.747  1.00  0.00     0.149 C 
HETATM   20  H   UNL     1       8.324  -3.911   0.646  1.00  0.00     0.161 HD
HETATM   21  O   UNL     1      11.347  -4.860   0.692  1.00  0.00    -0.273 OA
ENDBRANCH  16  17
ENDBRANCH   1  16
TORSDOF 4
