REMARK  2 active torsions:
REMARK  status: ('A' for Active; 'I' for Inactive)
REMARK       I    between atoms: C_2  and  N_4 
REMARK    1  A    between atoms: C_7  and  N_10 
REMARK       I    between atoms: N_10  and  C_11 
REMARK       I    between atoms: C_11  and  N_13 
REMARK    2  A    between atoms: N_13  and  C_14 
ROOT
HETATM    1  N   UNL     1       5.067   2.386   3.690  1.00  0.00    -0.338 N 
HETATM    2  C   UNL     1       5.980   2.658   4.659  1.00  0.00     0.322 C 
HETATM    3  O   UNL     1       7.149   2.950   4.439  1.00  0.00    -0.247 OA
HETATM    4  N   UNL     1       5.479   2.691   5.936  1.00  0.00    -0.294 N 
HETATM    5  H   UNL     1       4.241   1.912   4.047  1.00  0.00     0.164 HD
HETATM    6  H   UNL     1       6.128   3.065   6.612  1.00  0.00     0.172 HD
ENDROOT
BRANCH   1   7
HETATM    7  C   UNL     1       5.288   2.420   2.259  1.00  0.00     0.089 C 
HETATM    8  C   UNL     1       4.022   2.938   1.564  1.00  0.00     0.045 C 
HETATM    9  C   UNL     1       2.888   1.915   1.598  1.00  0.00     0.127 C 
HETATM   10  N   UNL     1       3.334   0.628   1.069  1.00  0.00    -0.352 N 
HETATM   11  C   UNL     1       2.617  -0.158   0.177  1.00  0.00     0.215 C 
HETATM   12  C   UNL     1       4.519   0.064   1.715  1.00  0.00     0.127 C 
HETATM   13  C   UNL     1       1.307   0.385  -0.334  1.00  0.00     0.117 C 
HETATM   14  O   UNL     1       3.002  -1.268  -0.192  1.00  0.00    -0.274 OA
HETATM   15  C   UNL     1       5.686   1.047   1.712  1.00  0.00     0.045 C 
ENDBRANCH   1   7
BRANCH   4  16
HETATM   16  C   UNL     1       4.202   2.291   6.364  1.00  0.00     0.114 A 
HETATM   17  N   UNL     1       3.468   1.521   5.521  1.00  0.00    -0.352 N 
HETATM   18  C   UNL     1       2.273   1.061   5.945  1.00  0.00     0.089 A 
ATOM     19  HN  UNL     1       3.812   1.295   4.588  1.00  0.00     0.166 HD
HETATM   20  C   UNL     1       1.752   1.342   7.190  1.00  0.00     0.018 A 
HETATM   21  C   UNL     1       2.492   2.157   8.036  1.00  0.00     0.012 A 
HETATM   22  C   UNL     1       3.732   2.670   7.625  1.00  0.00    -0.018 A 
HETATM   23  C   UNL     1       4.468   3.616   8.527  1.00  0.00     0.052 C 
ENDBRANCH   4  16
TORSDOF 2
