REMARK  4 active torsions:
REMARK  status: ('A' for Active; 'I' for Inactive)
REMARK       I    between atoms: C_2  and  N_4 
REMARK    1  A    between atoms: N_4  and  C_5 
REMARK    2  A    between atoms: C_5  and  C_6 
REMARK    3  A    between atoms: N_8  and  C_12 
REMARK    4  A    between atoms: C_17  and  C_20 
ROOT
HETATM    1  C   UNL     1       5.015   0.354  -2.688  1.00  0.00     0.157 C 
HETATM    2  C   UNL     1       4.511   1.716  -3.201  1.00  0.00     0.158 C 
HETATM    3  N   UNL     1       3.073   1.661  -3.484  1.00  0.00    -0.363 N 
HETATM    4  C   UNL     1       2.657   0.555  -4.349  1.00  0.00     0.150 C 
HETATM    5  C   UNL     1       3.216  -0.772  -3.814  1.00  0.00     0.188 C 
HETATM    6  O   UNL     1       4.628  -0.731  -3.571  1.00  0.00    -0.381 OA
ENDROOT
BRANCH   3   7
HETATM    7  C   UNL     1       2.209   2.593  -2.953  1.00  0.00     0.105 A 
HETATM    8  C   UNL     1       0.959   2.810  -3.503  1.00  0.00     0.065 A 
HETATM    9  C   UNL     1       0.126   3.699  -2.873  1.00  0.00     0.093 A 
HETATM   10  N   UNL     1       0.477   4.385  -1.779  1.00  0.00    -0.355 N 
HETATM   11  C   UNL     1       1.726   4.180  -1.322  1.00  0.00     0.090 A 
ATOM     12  HN  UNL     1      -0.166   5.028  -1.317  1.00  0.00     0.166 HD
HETATM   13  N   UNL     1       2.597   3.303  -1.873  1.00  0.00    -0.332 N 
ATOM     14  HN  UNL     1       3.530   3.181  -1.479  1.00  0.00     0.168 HD
BRANCH  11  15
HETATM   15  C   UNL     1       2.183   5.088  -0.180  1.00  0.00     0.007 C 
HETATM   16  C   UNL     1       1.254   4.915   1.038  1.00  0.00     0.022 C 
HETATM   17  C   UNL     1       3.627   4.796   0.267  1.00  0.00     0.022 C 
HETATM   18  C   UNL     1       2.107   6.546  -0.671  1.00  0.00     0.022 C 
ENDBRANCH  11  15
ENDBRANCH   3   7
BRANCH   1  19
HETATM   19  C   UNL     1       4.598   0.096  -1.230  1.00  0.00     0.156 C 
BRANCH  19  20
HETATM   20  N   UNL     1       5.106  -1.181  -0.759  1.00  0.00    -0.359 N 
HETATM   21  C   UNL     1       5.402  -1.405   0.565  1.00  0.00     0.213 C 
HETATM   22  C   UNL     1       5.819  -2.822   0.852  1.00  0.00     0.117 C 
HETATM   23  O   UNL     1       5.342  -0.546   1.437  1.00  0.00    -0.274 OA
HETATM   24  H   UNL     1       5.011  -1.971  -1.386  1.00  0.00     0.162 HD
ENDBRANCH  19  20
ENDBRANCH   1  19
TORSDOF 4
