REMARK  7 active torsions:
REMARK  status: ('A' for Active; 'I' for Inactive)
REMARK    1  A    between atoms: N_1  and  C_5 
REMARK    2  A    between atoms: N_3  and  C_17 
REMARK    3  A    between atoms: N_4  and  C_18 
REMARK    4  A    between atoms: C_17  and  C_19 
REMARK    5  A    between atoms: C_18  and  C_20 
REMARK    6  A    between atoms: C_19  and  C_26 
REMARK    7  A    between atoms: C_26  and  O_27 
ROOT
HETATM    1  C   UNL     1      -3.042  -1.719  -1.189  1.00  0.00     0.122 A 
HETATM    2  N   UNL     1      -4.818  -2.452  -2.287  1.00  0.00    -0.326 N 
HETATM    3  C   UNL     1      -1.770  -1.863  -0.567  1.00  0.00     0.137 A 
HETATM    4  C   UNL     1      -3.661  -2.871  -1.668  1.00  0.00     0.140 A 
HETATM    5  N   UNL     1      -3.843  -0.623  -1.439  1.00  0.00    -0.346 N 
ATOM      6  HN  UNL     1      -3.652   0.350  -1.199  1.00  0.00     0.167 HD
HETATM    7  C   UNL     1      -4.908  -1.101  -2.055  1.00  0.00     0.185 A 
HETATM    8  N   UNL     1      -3.190  -4.128  -1.614  1.00  0.00    -0.336 N 
ATOM      9  HN  UNL     1      -3.671  -4.943  -1.995  1.00  0.00     0.168 HD
HETATM   10  N   UNL     1      -1.285  -3.138  -0.483  1.00  0.00    -0.337 N 
ATOM     11  HN  UNL     1      -0.384  -3.312  -0.037  1.00  0.00     0.168 HD
HETATM   12  C   UNL     1      -1.997  -4.166  -0.989  1.00  0.00     0.183 A 
ENDROOT
BRANCH   2  13
HETATM   13  C   UNL     1      -5.721  -3.273  -3.123  1.00  0.00     0.143 C 
BRANCH  13  14
HETATM   14  C   UNL     1      -5.393  -3.217  -4.668  1.00  0.00     0.001 C 
HETATM   15  C   UNL     1      -5.812  -1.831  -5.210  1.00  0.00     0.039 C 
HETATM   16  C   UNL     1      -7.337  -1.765  -5.369  1.00  0.00     0.168 C 
HETATM   17  O   UNL     1      -7.713  -2.616  -6.440  1.00  0.00    -0.391 OA
HETATM   18  C   UNL     1      -7.505  -3.987  -6.133  1.00  0.00     0.168 C 
HETATM   19  C   UNL     1      -6.096  -4.276  -5.596  1.00  0.00     0.039 C 
BRANCH  14  20
HETATM   20  C   UNL     1      -3.878  -3.530  -4.830  1.00  0.00     0.175 C 
BRANCH  20  21
HETATM   21  O   UNL     1      -3.608  -4.849  -4.344  1.00  0.00    -0.400 OA
HETATM   22  H   UNL     1      -3.488  -4.803  -3.373  1.00  0.00     0.209 HD
ENDBRANCH  20  21
ENDBRANCH  14  20
ENDBRANCH  13  14
ENDBRANCH   2  13
BRANCH   3  23
HETATM   23  N   UNL     1      -0.988  -0.847  -0.063  1.00  0.00    -0.340 N 
HETATM   24  C   UNL     1      -1.403   0.535   0.026  1.00  0.00     0.254 A 
HETATM   25  N   UNL     1      -0.597   1.066   1.092  1.00  0.00    -0.334 N 
HETATM   26  C   UNL     1       0.260   0.129   1.647  1.00  0.00     0.239 A 
HETATM   27  C   UNL     1       0.068  -1.156   0.899  1.00  0.00     0.229 A 
HETATM   28  O   UNL     1       1.020   0.323   2.591  1.00  0.00    -0.271 OA
BRANCH  25  29
HETATM   29  C   UNL     1      -0.717   2.426   1.560  1.00  0.00     0.132 C 
BRANCH  29  30
HETATM   30  C   UNL     1       0.175   3.358   0.796  1.00  0.00     0.004 A 
HETATM   31  C   UNL     1       1.676   3.290   0.938  1.00  0.00     0.007 A 
HETATM   32  C   UNL     1       0.927   4.456   1.518  1.00  0.00     0.007 A 
ENDBRANCH  29  30
ENDBRANCH  25  29
ENDBRANCH   3  23
TORSDOF 7
