REMARK  4 active torsions:
REMARK  status: ('A' for Active; 'I' for Inactive)
REMARK    1  A    between atoms: C_8  and  N_9 
REMARK       I    between atoms: N_9  and  C_10 
REMARK       I    between atoms: C_10  and  N_12 
REMARK    2  A    between atoms: N_12  and  C_13 
REMARK    3  A    between atoms: N_16  and  C_17 
REMARK    4  A    between atoms: C_17  and  C_18 
REMARK       I    between atoms: C_18  and  N_20 
ROOT
HETATM    1  N   UNL     1       3.171  -3.287   0.895  1.00  0.00    -0.305 N 
HETATM    2  C   UNL     1       1.836  -3.435   1.212  1.00  0.00     0.321 C 
HETATM    3  O   UNL     1       1.329  -3.166   2.292  1.00  0.00    -0.247 OA
HETATM    4  N   UNL     1       1.128  -3.946   0.144  1.00  0.00    -0.338 N 
HETATM    5  H   UNL     1       3.539  -4.042   0.337  1.00  0.00     0.171 HD
HETATM    6  H   UNL     1       1.634  -4.106  -0.713  1.00  0.00     0.164 HD
ENDROOT
BRANCH   4   7
HETATM    7  C   UNL     1      -0.317  -4.194   0.164  1.00  0.00     0.089 C 
HETATM    8  C   UNL     1      -0.817  -4.620  -1.224  1.00  0.00     0.055 C 
HETATM    9  C   UNL     1      -0.778  -3.453  -2.223  1.00  0.00     0.275 C 
HETATM   10  N   UNL     1      -1.429  -2.207  -1.777  1.00  0.00     0.097 N 
HETATM   11  C   UNL     1      -1.002  -1.843  -0.414  1.00  0.00     0.275 C 
HETATM   12  C   UNL     1      -1.140  -2.978   0.601  1.00  0.00     0.055 C 
BRANCH  10  13
HETATM   13  C   UNL     1      -2.902  -2.261  -1.860  1.00  0.00     0.374 C 
BRANCH  13  14
HETATM   14  C   UNL     1      -3.376  -2.366  -3.312  1.00  0.00     0.243 C 
HETATM   15  O   UNL     1      -4.142  -3.239  -3.706  1.00  0.00    -0.272 OA
HETATM   16  N   UNL     1      -2.906  -1.393  -4.148  1.00  0.00    -0.369 N 
HETATM   17  H   UNL     1      -2.068  -0.896  -3.876  1.00  0.00     0.159 HD
HETATM   18  H   UNL     1      -3.111  -1.501  -5.131  1.00  0.00     0.159 HD
ENDBRANCH  13  14
ENDBRANCH  10  13
ENDBRANCH   4   7
BRANCH   1  19
HETATM   19  C   UNL     1       4.069  -2.724   1.788  1.00  0.00     0.083 A 
HETATM   20  C   UNL     1       4.037  -1.507   2.527  1.00  0.00     0.050 A 
HETATM   21  C   UNL     1       3.044  -0.403   2.492  1.00  0.00     0.072 C 
HETATM   22  N   UNL     1       5.148  -1.358   3.265  1.00  0.00    -0.303 N 
HETATM   23  N   UNL     1       5.856  -2.466   3.018  1.00  0.00    -0.303 N 
ATOM     24  HN  UNL     1       5.396  -0.579   3.875  1.00  0.00     0.186 HD
HETATM   25  C   UNL     1       5.278  -3.304   2.106  1.00  0.00     0.050 A 
HETATM   26  H   UNL     1       6.736  -2.587   3.509  1.00  0.00     0.186 HD
HETATM   27  C   UNL     1       5.894  -4.589   1.712  1.00  0.00     0.072 C 
ENDBRANCH   1  19
TORSDOF 4
