REMARK  2 active torsions:
REMARK  status: ('A' for Active; 'I' for Inactive)
REMARK       I    between atoms: C_2  and  N_3 
REMARK    1  A    between atoms: C_2  and  C_12 
REMARK    2  A    between atoms: N_3  and  C_4 
ROOT
HETATM    1  O   UNL     1       2.438   0.597   1.324  1.00  0.00    -0.270 OA
HETATM    2  C   UNL     1       2.359   0.051   0.223  1.00  0.00     0.252 C 
HETATM    3  N   UNL     1       1.751  -1.167   0.004  1.00  0.00    -0.310 N 
HETATM    4  H   UNL     1       1.430  -1.365  -0.936  1.00  0.00     0.170 HD
ENDROOT
BRANCH   3   5
HETATM    5  C   UNL     1       1.135  -1.906   1.017  1.00  0.00     0.123 A 
HETATM    6  C   UNL     1       1.603  -1.932   2.334  1.00  0.00     0.136 A 
HETATM    7  N   UNL     1       0.981  -2.611   3.331  1.00  0.00    -0.371 N 
HETATM    8  C   UNL     1      -0.149  -3.249   2.965  1.00  0.00     0.104 A 
ATOM      9  HN  UNL     1       1.341  -2.637   4.285  1.00  0.00     0.164 HD
HETATM   10  C   UNL     1      -0.607  -3.245   1.656  1.00  0.00     0.106 A 
HETATM   11  N   UNL     1       0.041  -2.605   0.650  1.00  0.00    -0.350 N 
ATOM     12  HN  UNL     1      -0.277  -2.649  -0.318  1.00  0.00     0.166 HD
ENDBRANCH   3   5
BRANCH   2  13
HETATM   13  C   UNL     1       2.988   0.666  -1.044  1.00  0.00     0.213 C 
HETATM   14  C   UNL     1       3.256   2.166  -0.872  1.00  0.00     0.042 C 
HETATM   15  C   UNL     1       1.974   2.976  -1.028  1.00  0.00     0.005 C 
HETATM   16  C   UNL     1       1.298   2.623  -2.344  1.00  0.00     0.026 C 
HETATM   17  C   UNL     1       1.103   1.119  -2.465  1.00  0.00     0.168 C 
HETATM   18  O   UNL     1       2.314   0.388  -2.269  1.00  0.00    -0.376 OA
ENDBRANCH   2  13
TORSDOF 2
