REMARK  6 active torsions:
REMARK  status: ('A' for Active; 'I' for Inactive)
REMARK    1  A    between atoms: C_2  and  C_3 
REMARK    2  A    between atoms: C_5  and  C_6 
REMARK    3  A    between atoms: N_8  and  C_11 
REMARK    4  A    between atoms: N_23  and  C_24 
REMARK    5  A    between atoms: C_24  and  C_25 
REMARK    6  A    between atoms: C_25  and  O_26 
ROOT
HETATM    1  C   UNL     1       4.268   0.616  -4.684  1.00  0.00     0.708 A 
HETATM    2  N   UNL     1       4.730   1.532  -5.526  1.00  0.00    -0.172 N 
ATOM      3  HN  UNL     1       4.804   2.536  -5.362  1.00  0.00     0.186 HD
HETATM    4  C   UNL     1       5.082   0.860  -6.646  1.00  0.00     0.160 A 
HETATM    5  N   UNL     1       5.597   1.418  -7.796  1.00  0.00    -0.287 N 
HETATM    6  C   UNL     1       5.817   2.842  -7.938  1.00  0.00     0.163 C 
HETATM    7  C   UNL     1       5.907   0.582  -8.865  1.00  0.00     0.330 A 
HETATM    8  O   UNL     1       6.379   0.987  -9.928  1.00  0.00    -0.246 OA
HETATM    9  N   UNL     1       5.669  -0.763  -8.696  1.00  0.00    -0.273 N 
HETATM   10  C   UNL     1       5.121  -1.383  -7.596  1.00  0.00     0.280 A 
HETATM   11  O   UNL     1       4.902  -2.588  -7.584  1.00  0.00    -0.265 OA
HETATM   12  C   UNL     1       4.855  -0.479  -6.524  1.00  0.00     0.164 A 
HETATM   13  N   UNL     1       4.358  -0.656  -5.243  1.00  0.00    -0.170 N 
HETATM   14  H   UNL     1       5.888  -1.351  -9.484  1.00  0.00     0.173 HD
ENDROOT
BRANCH   1  15
HETATM   15  N   UNL     1       3.759   0.980  -3.422  1.00  0.00    -0.090 N 
HETATM   16  C   UNL     1       3.568   2.244  -2.870  1.00  0.00     0.054 A 
HETATM   17  C   UNL     1       3.034   2.043  -1.612  1.00  0.00     0.054 A 
HETATM   18  C   UNL     1       2.905   0.650  -1.483  1.00  0.00     0.028 A 
HETATM   19  N   UNL     1       3.366   0.012  -2.563  1.00  0.00    -0.284 N 
ATOM     20  HN  UNL     1       3.412  -0.996  -2.709  1.00  0.00     0.188 HD
BRANCH  16  21
HETATM   21  C   UNL     1       3.859   3.540  -3.555  1.00  0.00     0.055 C 
HETATM   22  C   UNL     1       5.281   4.010  -3.297  1.00  0.00     0.011 C 
ENDBRANCH  16  21
BRANCH  18  23
HETATM   23  C   UNL     1       2.320  -0.113  -0.343  1.00  0.00     0.054 C 
HETATM   24  C   UNL     1       3.356  -0.482   0.707  1.00  0.00     0.011 C 
ENDBRANCH  18  23
ENDBRANCH   1  15
BRANCH  13  25
HETATM   25  C   UNL     1       3.976  -1.950  -4.702  1.00  0.00     0.174 C 
BRANCH  25  26
HETATM   26  C   UNL     1       5.162  -2.881  -4.450  1.00  0.00     0.187 C 
BRANCH  26  27
HETATM   27  O   UNL     1       4.713  -4.069  -3.792  1.00  0.00    -0.394 OA
HETATM   28  C   UNL     1       5.768  -5.017  -3.669  1.00  0.00     0.201 C 
ENDBRANCH  26  27
ENDBRANCH  25  26
ENDBRANCH  13  25
TORSDOF 6
