REMARK  5 active torsions:
REMARK  status: ('A' for Active; 'I' for Inactive)
REMARK    1  A    between atoms: O_1  and  C_2 
REMARK    2  A    between atoms: C_2  and  C_3 
REMARK    3  A    between atoms: C_3  and  N_4 
REMARK    4  A    between atoms: C_7  and  C_16 
REMARK    5  A    between atoms: C_9  and  C_12 
ROOT
HETATM    1  N   UNL     1       4.462   0.233   1.592  1.00  0.00    -0.254 N 
HETATM    2  N   UNL     1       5.070   1.457   1.392  1.00  0.00    -0.299 N 
ATOM      3  HN  UNL     1       4.540   2.273   1.085  1.00  0.00     0.187 HD
HETATM    4  C   UNL     1       6.340   1.520   1.612  1.00  0.00     0.031 A 
HETATM    5  C   UNL     1       7.190   0.397   2.012  1.00  0.00     0.049 A 
HETATM    6  C   UNL     1       6.602  -0.798   2.151  1.00  0.00     0.119 A 
HETATM    7  C   UNL     1       5.138  -0.920   1.988  1.00  0.00     0.277 A 
HETATM    8  O   UNL     1       4.566  -1.980   2.211  1.00  0.00    -0.266 OA
ENDROOT
BRANCH   1   9
HETATM    9  C   UNL     1       2.994   0.215   1.497  1.00  0.00     0.190 C 
BRANCH   9  10
HETATM   10  C   UNL     1       2.458  -0.071   0.070  1.00  0.00     0.076 C 
HETATM   11  C   UNL     1       2.954  -1.408  -0.509  1.00  0.00     0.040 C 
HETATM   12  C   UNL     1       2.310  -1.738  -1.858  1.00  0.00     0.003 C 
HETATM   13  C   UNL     1       0.788  -1.716  -1.777  1.00  0.00     0.000 C 
HETATM   14  C   UNL     1       0.283  -0.383  -1.238  1.00  0.00     0.003 C 
HETATM   15  C   UNL     1       0.916  -0.051   0.112  1.00  0.00     0.040 C 
BRANCH  10  16
HETATM   16  O   UNL     1       2.886   0.980  -0.810  1.00  0.00    -0.388 OA
HETATM   17  H   UNL     1       3.827   1.146  -0.600  1.00  0.00     0.210 HD
ENDBRANCH  10  16
ENDBRANCH   9  10
ENDBRANCH   1   9
BRANCH   4  18
HETATM   18  C   UNL     1       6.995   2.844   1.476  1.00  0.00     0.037 A 
HETATM   19  C   UNL     1       7.075   3.488   0.111  1.00  0.00     0.011 A 
HETATM   20  C   UNL     1       8.330   3.034   0.790  1.00  0.00     0.011 A 
ENDBRANCH   4  18
BRANCH   6  21
HETATM   21  C   UNL     1       7.375  -2.019   2.474  1.00  0.00     0.422 C 
HETATM   22  F   UNL     1       6.707  -3.194   2.448  1.00  0.00    -0.166 F 
HETATM   23  F   UNL     1       8.414  -2.161   1.600  1.00  0.00    -0.166 F 
HETATM   24  F   UNL     1       7.945  -1.918   3.706  1.00  0.00    -0.166 F 
ENDBRANCH   6  21
TORSDOF 5
