REMARK  7 active torsions:
REMARK  status: ('A' for Active; 'I' for Inactive)
REMARK    1  A    between atoms: C_2  and  C_3 
REMARK    2  A    between atoms: C_3  and  O_4 
REMARK    3  A    between atoms: C_3  and  C_10 
REMARK    4  A    between atoms: O_4  and  C_5 
REMARK       I    between atoms: C_10  and  N_12 
REMARK    5  A    between atoms: N_12  and  C_13 
REMARK    6  A    between atoms: C_13  and  C_14 
REMARK    7  A    between atoms: C_14  and  C_15 
ROOT
HETATM    1  C   UNL     1       4.543   1.425   0.082  1.00  0.00     0.246 C 
HETATM    2  O   UNL     1       5.181   0.435  -0.277  1.00  0.00    -0.271 OA
HETATM    3  N   UNL     1       5.143   2.644   0.326  1.00  0.00    -0.359 N 
HETATM    4  H   UNL     1       4.578   3.334   0.810  1.00  0.00     0.162 HD
ENDROOT
BRANCH   1   5
HETATM    5  C   UNL     1       3.026   1.397   0.324  1.00  0.00     0.213 C 
BRANCH   5   6
HETATM    6  C   UNL     1       2.505  -0.017   0.004  1.00  0.00     0.037 C 
HETATM    7  C   UNL     1       0.995  -0.151  -0.010  1.00  0.00     0.008 C 
ENDBRANCH   5   6
BRANCH   5   8
HETATM    8  O   UNL     1       2.629   1.923   1.595  1.00  0.00    -0.371 OA
BRANCH   8   9
HETATM    9  C   UNL     1       3.023   1.192   2.751  1.00  0.00     0.122 C 
HETATM   10  C   UNL     1       2.462   1.856   4.016  1.00  0.00     0.032 C 
HETATM   11  C   UNL     1       3.433   1.492   5.147  1.00  0.00     0.002 C 
HETATM   12  C   UNL     1       4.597   0.766   4.486  1.00  0.00     0.002 C 
HETATM   13  C   UNL     1       4.520   1.205   3.041  1.00  0.00     0.032 C 
ENDBRANCH   8   9
ENDBRANCH   5   8
ENDBRANCH   1   5
BRANCH   3  14
HETATM   14  C   UNL     1       6.591   2.772   0.360  1.00  0.00     0.127 C 
BRANCH  14  15
HETATM   15  C   UNL     1       7.301   2.395  -0.948  1.00  0.00     0.061 C 
BRANCH  15  16
HETATM   16  C   UNL     1       6.822   3.210  -2.098  1.00  0.00    -0.023 A 
HETATM   17  C   UNL     1       5.698   2.960  -2.921  1.00  0.00     0.115 A 
HETATM   18  N   UNL     1       5.511   3.918  -3.831  1.00  0.00    -0.310 N 
HETATM   19  N   UNL     1       6.520   4.772  -3.601  1.00  0.00    -0.308 N 
ATOM     20  HN  UNL     1       4.775   3.985  -4.535  1.00  0.00     0.186 HD
HETATM   21  C   UNL     1       6.649   5.977  -4.383  1.00  0.00     0.177 C 
HETATM   22  C   UNL     1       7.337   4.392  -2.579  1.00  0.00     0.118 A 
ENDBRANCH  15  16
ENDBRANCH  14  15
ENDBRANCH   3  14
TORSDOF 7
