REMARK  6 active torsions:
REMARK  status: ('A' for Active; 'I' for Inactive)
REMARK    1  A    between atoms: C_2  and  C_4 
REMARK    2  A    between atoms: C_7  and  C_10 
REMARK       I    between atoms: C_10  and  N_12 
REMARK    3  A    between atoms: N_12  and  C_13 
REMARK    4  A    between atoms: C_13  and  C_14 
REMARK    5  A    between atoms: C_14  and  O_15 
REMARK    6  A    between atoms: C_14  and  C_16 
ROOT
HETATM    1  C   UNL     1       2.020  -4.584   1.127  1.00  0.00     0.221 C 
HETATM    2  O   UNL     1       2.405  -4.531   2.289  1.00  0.00    -0.273 OA
HETATM    3  N   UNL     1       1.112  -5.518   0.685  1.00  0.00    -0.358 N 
HETATM    4  H   UNL     1       0.992  -5.660  -0.313  1.00  0.00     0.162 HD
ENDROOT
BRANCH   3   5
HETATM    5  C   UNL     1       0.611  -6.570   1.553  1.00  0.00     0.159 C 
BRANCH   5   6
HETATM    6  C   UNL     1      -0.774  -7.049   1.089  1.00  0.00     0.170 C 
BRANCH   6   7
HETATM    7  O   UNL     1      -0.647  -7.569  -0.243  1.00  0.00    -0.389 OA
HETATM    8  H   UNL     1      -0.507  -8.530  -0.173  1.00  0.00     0.210 HD
ENDBRANCH   6   7
BRANCH   6   9
HETATM    9  C   UNL     1      -1.416  -8.090   1.974  1.00  0.00    -0.013 A 
HETATM   10  C   UNL     1      -0.697  -9.049   2.694  1.00  0.00     0.012 A 
HETATM   11  C   UNL     1      -1.373  -9.982   3.477  1.00  0.00     0.018 A 
HETATM   12  C   UNL     1      -2.755  -9.936   3.509  1.00  0.00     0.087 A 
HETATM   13  N   UNL     1      -3.488  -9.038   2.820  1.00  0.00    -0.375 N 
HETATM   14  C   UNL     1      -2.808  -8.143   2.069  1.00  0.00     0.097 A 
ATOM     15  HN  UNL     1      -4.507  -9.034   2.863  1.00  0.00     0.164 HD
ENDBRANCH   6   9
ENDBRANCH   5   6
ENDBRANCH   3   5
BRANCH   1  16
HETATM   16  C   UNL     1       2.509  -3.644   0.032  1.00  0.00     0.078 C 
HETATM   17  C   UNL     1       1.356  -2.812  -0.538  1.00  0.00     0.014 C 
HETATM   18  C   UNL     1       1.839  -1.882  -1.648  1.00  0.00     0.006 C 
HETATM   19  C   UNL     1       2.989  -0.966  -1.188  1.00  0.00    -0.011 C 
HETATM   20  C   UNL     1       4.124  -1.793  -0.557  1.00  0.00     0.006 C 
HETATM   21  C   UNL     1       3.612  -2.716   0.548  1.00  0.00     0.014 C 
BRANCH  19  22
HETATM   22  C   UNL     1       3.459  -0.022  -2.332  1.00  0.00    -0.019 C 
HETATM   23  C   UNL     1       3.979  -0.750  -3.576  1.00  0.00     0.010 C 
HETATM   24  C   UNL     1       4.513   0.980  -1.850  1.00  0.00     0.010 C 
ENDBRANCH  19  22
ENDBRANCH   1  16
TORSDOF 6
