REMARK  3 active torsions:
REMARK  status: ('A' for Active; 'I' for Inactive)
REMARK    1  A    between atoms: N_6  and  C_7 
REMARK    2  A    between atoms: C_7  and  C_8 
REMARK       I    between atoms: C_8  and  N_10 
REMARK    3  A    between atoms: N_10  and  C_11 
ROOT
HETATM    1  C   UNL     1       5.031  -3.160   0.308  1.00  0.00     0.238 C 
HETATM    2  O   UNL     1       3.822  -3.390   0.373  1.00  0.00    -0.272 OA
HETATM    3  N   UNL     1       5.974  -4.165   0.184  1.00  0.00    -0.347 N 
HETATM    4  H   UNL     1       6.814  -3.913  -0.337  1.00  0.00     0.163 HD
ENDROOT
BRANCH   1   5
HETATM    5  C   UNL     1       5.584  -1.765   0.459  1.00  0.00     0.251 C 
BRANCH   5   6
HETATM    6  N   UNL     1       5.688  -1.077  -0.809  1.00  0.00    -0.288 N 
HETATM    7  C   UNL     1       4.756  -0.274  -1.418  1.00  0.00     0.027 A 
HETATM    8  C   UNL     1       5.377   0.221  -2.545  1.00  0.00     0.052 A 
HETATM    9  C   UNL     1       3.384  -0.050  -0.901  1.00  0.00     0.070 C 
HETATM   10  C   UNL     1       6.682  -0.316  -2.521  1.00  0.00     0.024 A 
HETATM   11  C   UNL     1       7.777  -0.093  -3.493  1.00  0.00     0.070 C 
HETATM   12  N   UNL     1       6.874  -1.098  -1.453  1.00  0.00    -0.303 N 
ATOM     13  HN  UNL     1       7.723  -1.596  -1.186  1.00  0.00     0.186 HD
ENDBRANCH   5   6
ENDBRANCH   1   5
BRANCH   3  14
HETATM   14  C   UNL     1       5.527  -5.548   0.068  1.00  0.00     0.170 C 
HETATM   15  C   UNL     1       6.533  -6.534   0.691  1.00  0.00     0.034 C 
HETATM   16  C   UNL     1       5.875  -7.877   1.034  1.00  0.00     0.004 C 
HETATM   17  C   UNL     1       5.633  -8.866  -0.119  1.00  0.00     0.015 C 
HETATM   18  C   UNL     1       5.433  -8.310  -1.532  1.00  0.00     0.095 C 
HETATM   19  N   UNL     1       4.622  -7.115  -1.555  1.00  0.00    -0.261 NA
HETATM   20  C   UNL     1       5.336  -5.934  -1.403  1.00  0.00     0.220 C 
HETATM   21  H   UNL     1       3.804  -7.185  -0.961  1.00  0.00     0.130 HD
HETATM   22  O   UNL     1       5.942  -5.399  -2.327  1.00  0.00    -0.278 OA
ENDBRANCH   3  14
TORSDOF 3
