REMARK  2 active torsions:
REMARK  status: ('A' for Active; 'I' for Inactive)
REMARK       I    between atoms: C_2  and  N_4 
REMARK    1  A    between atoms: C_7  and  N_10 
REMARK       I    between atoms: N_10  and  C_11 
REMARK       I    between atoms: C_11  and  N_13 
REMARK    2  A    between atoms: N_13  and  C_14 
ROOT
HETATM    1  N   UNL     1       5.658   3.904   0.322  1.00  0.00    -0.338 N 
HETATM    2  C   UNL     1       6.850   4.468  -0.089  1.00  0.00     0.321 C 
HETATM    3  O   UNL     1       7.066   4.777  -1.253  1.00  0.00    -0.247 OA
HETATM    4  N   UNL     1       7.696   4.683   0.976  1.00  0.00    -0.306 N 
HETATM    5  H   UNL     1       5.737   3.250   1.087  1.00  0.00     0.164 HD
HETATM    6  H   UNL     1       7.318   4.595   1.906  1.00  0.00     0.171 HD
ENDROOT
BRANCH   1   7
HETATM    7  C   UNL     1       4.573   3.711  -0.640  1.00  0.00     0.089 C 
HETATM    8  C   UNL     1       3.216   3.693   0.064  1.00  0.00     0.045 C 
HETATM    9  C   UNL     1       2.981   2.401   0.838  1.00  0.00     0.127 C 
HETATM   10  N   UNL     1       3.226   1.221   0.010  1.00  0.00    -0.352 N 
HETATM   11  C   UNL     1       2.498   0.039   0.104  1.00  0.00     0.215 C 
HETATM   12  C   UNL     1       4.510   1.182  -0.690  1.00  0.00     0.127 C 
HETATM   13  C   UNL     1       1.285   0.043   0.999  1.00  0.00     0.117 C 
HETATM   14  O   UNL     1       2.811  -0.986  -0.502  1.00  0.00    -0.274 OA
HETATM   15  C   UNL     1       4.759   2.452  -1.491  1.00  0.00     0.045 C 
ENDBRANCH   1   7
BRANCH   4  16
HETATM   16  C   UNL     1       8.913   5.323   0.847  1.00  0.00     0.070 A 
HETATM   17  C   UNL     1       9.680   5.641  -0.296  1.00  0.00     0.138 A 
HETATM   18  N   UNL     1      10.796   6.311   0.011  1.00  0.00    -0.310 N 
HETATM   19  N   UNL     1      10.732   6.434   1.345  1.00  0.00    -0.310 N 
ATOM     20  HN  UNL     1      11.523   6.648  -0.620  1.00  0.00     0.186 HD
HETATM   21  C   UNL     1       9.643   5.823   1.899  1.00  0.00     0.138 A 
HETATM   22  H   UNL     1      11.466   6.956   1.811  1.00  0.00     0.186 HD
ENDBRANCH   4  16
TORSDOF 2
