REMARK  5 active torsions:
REMARK  status: ('A' for Active; 'I' for Inactive)
REMARK    1  A    between atoms: N_7  and  C_8 
REMARK    2  A    between atoms: C_8  and  C_9 
REMARK       I    between atoms: C_9  and  N_11 
REMARK    3  A    between atoms: N_11  and  C_12 
REMARK    4  A    between atoms: C_12  and  C_13 
REMARK    5  A    between atoms: C_13  and  C_14 
REMARK       I    between atoms: C_14  and  N_16 
ROOT
HETATM    1  C   UNL     1       1.236  -4.066  -1.442  1.00  0.00     0.235 C 
HETATM    2  O   UNL     1       0.624  -4.365  -2.469  1.00  0.00    -0.272 OA
HETATM    3  N   UNL     1       0.618  -3.948  -0.217  1.00  0.00    -0.359 N 
HETATM    4  H   UNL     1       1.180  -4.022   0.632  1.00  0.00     0.162 HD
ENDROOT
BRANCH   3   5
HETATM    5  C   UNL     1      -0.825  -4.020  -0.069  1.00  0.00     0.132 C 
BRANCH   5   6
HETATM    6  C   UNL     1      -1.376  -5.439  -0.002  1.00  0.00     0.122 C 
BRANCH   6   7
HETATM    7  C   UNL     1      -1.060  -6.101   1.325  1.00  0.00     0.221 C 
HETATM    8  O   UNL     1      -0.389  -5.539   2.191  1.00  0.00    -0.273 OA
HETATM    9  N   UNL     1      -1.607  -7.347   1.532  1.00  0.00    -0.352 N 
HETATM   10  C   UNL     1      -1.443  -8.028   2.800  1.00  0.00     0.126 C 
HETATM   11  C   UNL     1      -2.296  -8.196   0.581  1.00  0.00     0.126 C 
HETATM   12  C   UNL     1      -2.449  -9.175   2.777  1.00  0.00     0.021 C 
HETATM   13  C   UNL     1      -3.216  -9.020   1.464  1.00  0.00     0.021 C 
ENDBRANCH   6   7
ENDBRANCH   5   6
ENDBRANCH   3   5
BRANCH   1  14
HETATM   14  C   UNL     1       2.740  -3.784  -1.451  1.00  0.00     0.235 C 
BRANCH  14  15
HETATM   15  N   UNL     1       3.571  -4.965  -1.342  1.00  0.00    -0.303 N 
HETATM   16  C   UNL     1       4.090  -5.695  -2.404  1.00  0.00     0.018 A 
HETATM   17  C   UNL     1       3.744  -5.412  -3.829  1.00  0.00     0.069 C 
HETATM   18  C   UNL     1       4.930  -6.664  -2.016  1.00  0.00     0.080 A 
HETATM   19  S   UNL     1       5.105  -6.729  -0.291  1.00  0.00    -0.039 SA
HETATM   20  C   UNL     1       3.986  -5.379  -0.085  1.00  0.00     0.290 A 
HETATM   21  O   UNL     1       3.675  -4.901   0.997  1.00  0.00    -0.259 OA
ENDBRANCH  14  15
ENDBRANCH   1  14
TORSDOF 5
