REMARK  4 active torsions:
REMARK  status: ('A' for Active; 'I' for Inactive)
REMARK    1  A    between atoms: C_8  and  N_9 
REMARK       I    between atoms: N_9  and  C_10 
REMARK    2  A    between atoms: C_10  and  C_12 
REMARK    3  A    between atoms: C_12  and  O_13 
REMARK    4  A    between atoms: O_13  and  C_14 
ROOT
HETATM    1  N   UNL     1       0.719  -1.623  -0.984  1.00  0.00    -0.323 N 
HETATM    2  C   UNL     1       1.086  -2.961  -0.999  1.00  0.00     0.245 C 
HETATM    3  O   UNL     1       2.129  -3.411  -1.469  1.00  0.00    -0.271 OA
HETATM    4  H   UNL     1      -0.161  -1.397  -0.526  1.00  0.00     0.169 HD
ENDROOT
BRANCH   1   5
HETATM    5  C   UNL     1       1.407  -0.539  -1.589  1.00  0.00     0.076 A 
HETATM    6  C   UNL     1       0.901   0.751  -1.414  1.00  0.00     0.158 A 
HETATM    7  F   UNL     1      -0.194   0.961  -0.666  1.00  0.00    -0.202 F 
HETATM    8  C   UNL     1       1.544   1.825  -2.014  1.00  0.00     0.132 A 
HETATM    9  N   UNL     1       2.649   1.702  -2.777  1.00  0.00    -0.372 N 
HETATM   10  C   UNL     1       3.128   0.450  -2.937  1.00  0.00     0.090 A 
ATOM     11  HN  UNL     1       3.098   2.510  -3.209  1.00  0.00     0.164 HD
HETATM   12  C   UNL     1       2.553  -0.682  -2.367  1.00  0.00     0.050 A 
ENDBRANCH   1   5
BRANCH   2  13
HETATM   13  C   UNL     1       0.080  -3.888  -0.294  1.00  0.00     0.271 C 
BRANCH  13  14
HETATM   14  O   UNL     1      -1.230  -3.657  -0.781  1.00  0.00    -0.377 OA
BRANCH  14  15
HETATM   15  C   UNL     1      -2.259  -4.579  -0.396  1.00  0.00     0.122 C 
HETATM   16  C   UNL     1      -2.607  -4.509   1.097  1.00  0.00     0.032 C 
HETATM   17  C   UNL     1      -2.013  -5.620   1.958  1.00  0.00     0.002 C 
HETATM   18  C   UNL     1      -2.223  -6.991   1.334  1.00  0.00     0.000 C 
HETATM   19  C   UNL     1      -1.555  -7.053  -0.031  1.00  0.00     0.002 C 
HETATM   20  C   UNL     1      -2.105  -5.993  -0.984  1.00  0.00     0.032 C 
ENDBRANCH  14  15
ENDBRANCH  13  14
ENDBRANCH   2  13
TORSDOF 4
