REMARK  3 active torsions:
REMARK  status: ('A' for Active; 'I' for Inactive)
REMARK    1  A    between atoms: C_2  and  C_3 
REMARK       I    between atoms: C_3  and  N_5 
REMARK    2  A    between atoms: N_5  and  C_6 
REMARK    3  A    between atoms: C_9  and  N_13 
ROOT
HETATM    1  C   UNL     1       4.953  -1.886   2.434  1.00  0.00     0.050 A 
HETATM    2  C   UNL     1       5.871  -1.475   3.385  1.00  0.00     0.035 A 
HETATM    3  C   UNL     1       6.291  -2.354   4.382  1.00  0.00     0.051 A 
HETATM    4  C   UNL     1       5.805  -3.657   4.440  1.00  0.00     0.103 A 
HETATM    5  N   UNL     1       4.875  -4.057   3.542  1.00  0.00    -0.350 N 
ATOM      6  HN  UNL     1       4.484  -4.998   3.584  1.00  0.00     0.166 HD
HETATM    7  C   UNL     1       4.470  -3.179   2.579  1.00  0.00     0.119 A 
ENDROOT
BRANCH   1   8
HETATM    8  N   UNL     1       4.497  -1.046   1.390  1.00  0.00    -0.326 N 
HETATM    9  C   UNL     1       5.127   0.127   1.000  1.00  0.00     0.221 C 
HETATM   10  O   UNL     1       6.210   0.524   1.417  1.00  0.00    -0.273 OA
HETATM   11  H   UNL     1       3.729  -1.381   0.822  1.00  0.00     0.169 HD
BRANCH   9  12
HETATM   12  C   UNL     1       4.352   0.918  -0.035  1.00  0.00     0.098 C 
HETATM   13  C   UNL     1       5.124   2.170  -0.436  1.00  0.00     0.014 C 
ENDBRANCH   9  12
ENDBRANCH   1   8
BRANCH   4  14
HETATM   14  N   UNL     1       6.219  -4.522   5.430  1.00  0.00    -0.363 N 
HETATM   15  C   UNL     1       7.547  -4.442   6.054  1.00  0.00     0.150 C 
HETATM   16  C   UNL     1       8.379  -5.692   5.725  1.00  0.00     0.187 C 
HETATM   17  O   UNL     1       7.680  -6.899   6.064  1.00  0.00    -0.388 OA
HETATM   18  C   UNL     1       6.451  -6.978   5.320  1.00  0.00     0.187 C 
HETATM   19  C   UNL     1       5.523  -5.797   5.637  1.00  0.00     0.150 C 
ENDBRANCH   4  14
TORSDOF 3
