REMARK  5 active torsions:
REMARK  status: ('A' for Active; 'I' for Inactive)
REMARK    1  A    between atoms: O_2  and  C_3 
REMARK    2  A    between atoms: C_3  and  C_4 
REMARK    3  A    between atoms: C_4  and  N_5 
REMARK    4  A    between atoms: C_10  and  N_11 
REMARK       I    between atoms: N_11  and  C_12 
REMARK       I    between atoms: C_12  and  N_14 
REMARK    5  A    between atoms: N_14  and  C_15 
ROOT
HETATM    1  N   UNL     1       4.959  -0.923   2.989  1.00  0.00    -0.292 N 
HETATM    2  N   UNL     1       4.799  -2.249   3.018  1.00  0.00    -0.301 N 
ATOM      3  HN  UNL     1       4.457  -2.851   2.269  1.00  0.00     0.187 HD
HETATM    4  C   UNL     1       5.185  -2.613   4.244  1.00  0.00     0.051 A 
HETATM    5  C   UNL     1       5.034  -4.051   4.588  1.00  0.00     0.072 C 
HETATM    6  C   UNL     1       5.633  -1.488   5.013  1.00  0.00     0.084 A 
HETATM    7  C   UNL     1       5.464  -0.402   4.159  1.00  0.00     0.053 A 
HETATM    8  C   UNL     1       5.762   1.045   4.297  1.00  0.00     0.072 C 
ENDROOT
BRANCH   6   9
HETATM    9  N   UNL     1       6.120  -1.407   6.328  1.00  0.00    -0.305 N 
HETATM   10  C   UNL     1       6.638  -2.493   7.004  1.00  0.00     0.321 C 
HETATM   11  O   UNL     1       6.872  -3.584   6.505  1.00  0.00    -0.247 OA
HETATM   12  N   UNL     1       6.846  -2.292   8.361  1.00  0.00    -0.338 N 
HETATM   13  H   UNL     1       7.015  -1.357   8.695  1.00  0.00     0.164 HD
HETATM   14  H   UNL     1       6.264  -0.487   6.713  1.00  0.00     0.171 HD
BRANCH  12  15
HETATM   15  C   UNL     1       7.348  -3.433   9.147  1.00  0.00     0.086 C 
HETATM   16  C   UNL     1       7.058  -3.361  10.652  1.00  0.00     0.025 C 
HETATM   17  C   UNL     1       7.983  -2.441  11.443  1.00  0.00     0.002 C 
HETATM   18  C   UNL     1       9.462  -2.567  11.083  1.00  0.00     0.000 C 
HETATM   19  C   UNL     1       9.727  -2.656   9.585  1.00  0.00     0.002 C 
HETATM   20  C   UNL     1       8.842  -3.693   8.906  1.00  0.00     0.025 C 
ENDBRANCH  12  15
ENDBRANCH   6   9
BRANCH   1  21
HETATM   21  C   UNL     1       4.599  -0.244   1.759  1.00  0.00     0.175 C 
BRANCH  21  22
HETATM   22  C   UNL     1       5.739  -0.244   0.750  1.00  0.00     0.188 C 
BRANCH  22  23
HETATM   23  O   UNL     1       5.299   0.386  -0.458  1.00  0.00    -0.394 OA
HETATM   24  C   UNL     1       6.324   0.394  -1.445  1.00  0.00     0.201 C 
ENDBRANCH  22  23
ENDBRANCH  21  22
ENDBRANCH   1  21
TORSDOF 5
