REMARK  4 active torsions:
REMARK  status: ('A' for Active; 'I' for Inactive)
REMARK       I    between atoms: N_5  and  C_8 
REMARK       I    between atoms: C_8  and  N_10 
REMARK    1  A    between atoms: N_10  and  C_11 
REMARK    2  A    between atoms: C_11  and  C_12 
REMARK    3  A    between atoms: C_12  and  C_13 
REMARK    4  A    between atoms: N_18  and  C_19 
ROOT
HETATM    1  C   UNL     1       0.898  -0.015   0.138  1.00  0.00     0.010 C 
HETATM    2  C   UNL     1       2.421  -0.029  -0.016  1.00  0.00    -0.015 C 
HETATM    3  C   UNL     1       2.902   1.017  -1.035  1.00  0.00     0.024 C 
HETATM    4  C   UNL     1       2.570   0.633  -2.479  1.00  0.00     0.128 C 
HETATM    5  N   UNL     1       3.037  -0.723  -2.782  1.00  0.00    -0.334 N 
HETATM    6  C   UNL     1       2.572  -1.762  -1.863  1.00  0.00     0.128 C 
HETATM    7  C   UNL     1       2.936  -1.418  -0.421  1.00  0.00     0.024 C 
HETATM    8  C   UNL     1       3.927  -1.087  -3.767  1.00  0.00     0.318 C 
HETATM    9  O   UNL     1       4.380  -2.225  -3.863  1.00  0.00    -0.247 OA
HETATM   10  N   UNL     1       4.273  -0.117  -4.663  1.00  0.00    -0.343 N 
HETATM   11  H   UNL     1       3.597   0.607  -4.853  1.00  0.00     0.164 HD
ENDROOT
BRANCH  10  12
HETATM   12  C   UNL     1       5.213  -0.404  -5.736  1.00  0.00     0.132 C 
BRANCH  12  13
HETATM   13  C   UNL     1       4.695  -1.416  -6.767  1.00  0.00     0.096 C 
BRANCH  13  14
HETATM   14  C   UNL     1       3.518  -0.887  -7.522  1.00  0.00     0.088 A 
HETATM   15  N   UNL     1       3.560   0.200  -8.271  1.00  0.00    -0.354 N 
HETATM   16  C   UNL     1       2.324   0.325  -8.840  1.00  0.00     0.107 A 
ATOM     17  HN  UNL     1       4.357   0.823  -8.399  1.00  0.00     0.166 HD
HETATM   18  C   UNL     1       1.501  -0.690  -8.425  1.00  0.00     0.114 A 
HETATM   19  N   UNL     1       2.261  -1.449  -7.566  1.00  0.00    -0.289 N 
BRANCH  19  20
HETATM   20  C   UNL     1       1.761  -2.620  -6.873  1.00  0.00     0.465 C 
HETATM   21  F   UNL     1       0.680  -2.297  -6.109  1.00  0.00    -0.191 F 
HETATM   22  F   UNL     1       1.330  -3.554  -7.765  1.00  0.00    -0.191 F 
ENDBRANCH  19  20
ENDBRANCH  13  14
ENDBRANCH  12  13
ENDBRANCH  10  12
TORSDOF 4
