REMARK  7 active torsions:
REMARK  status: ('A' for Active; 'I' for Inactive)
REMARK    1  A    between atoms: O_2  and  C_3 
REMARK    2  A    between atoms: C_3  and  C_4 
REMARK    3  A    between atoms: C_4  and  N_5 
REMARK    4  A    between atoms: C_6  and  N_7 
REMARK    5  A    between atoms: N_7  and  C_8 
REMARK    6  A    between atoms: C_8  and  C_9 
REMARK    7  A    between atoms: C_9  and  O_10 
ROOT
HETATM    1  N   UNL     1       4.880  -2.452  -1.168  1.00  0.00    -0.172 N 
HETATM    2  C   UNL     1       5.552  -2.506  -2.374  1.00  0.00     0.682 A 
HETATM    3  N   UNL     1       5.680  -3.751  -2.786  1.00  0.00    -0.174 N 
ATOM      4  HN  UNL     1       6.134  -4.077  -3.640  1.00  0.00     0.186 HD
HETATM    5  C   UNL     1       5.078  -4.510  -1.830  1.00  0.00     0.160 A 
HETATM    6  N   UNL     1       4.920  -5.880  -1.836  1.00  0.00    -0.287 N 
HETATM    7  C   UNL     1       5.460  -6.721  -2.881  1.00  0.00     0.163 C 
HETATM    8  C   UNL     1       4.185  -6.476  -0.814  1.00  0.00     0.330 A 
HETATM    9  O   UNL     1       3.954  -7.684  -0.755  1.00  0.00    -0.246 OA
HETATM   10  N   UNL     1       3.691  -5.648   0.173  1.00  0.00    -0.273 N 
HETATM   11  C   UNL     1       3.824  -4.283   0.256  1.00  0.00     0.280 A 
HETATM   12  O   UNL     1       3.320  -3.634   1.165  1.00  0.00    -0.265 OA
HETATM   13  C   UNL     1       4.567  -3.740  -0.827  1.00  0.00     0.164 A 
HETATM   14  H   UNL     1       3.153  -6.095   0.900  1.00  0.00     0.173 HD
ENDROOT
BRANCH   2  15
HETATM   15  N   UNL     1       5.914  -1.385  -3.029  1.00  0.00    -0.224 N 
HETATM   16  H   UNL     1       6.109  -0.510  -2.555  1.00  0.00     0.177 HD
BRANCH  15  17
HETATM   17  C   UNL     1       6.384  -1.464  -4.412  1.00  0.00     0.164 C 
BRANCH  17  18
HETATM   18  C   UNL     1       5.187  -1.631  -5.357  1.00  0.00     0.184 C 
BRANCH  18  19
HETATM   19  O   UNL     1       4.233  -0.595  -5.114  1.00  0.00    -0.399 OA
HETATM   20  H   UNL     1       4.103  -0.607  -4.148  1.00  0.00     0.209 HD
ENDBRANCH  18  19
ENDBRANCH  17  18
ENDBRANCH  15  17
ENDBRANCH   2  15
BRANCH   1  21
HETATM   21  C   UNL     1       4.393  -1.264  -0.497  1.00  0.00     0.174 C 
BRANCH  21  22
HETATM   22  C   UNL     1       2.991  -0.899  -0.971  1.00  0.00     0.187 C 
BRANCH  22  23
HETATM   23  O   UNL     1       2.532   0.248  -0.258  1.00  0.00    -0.394 OA
HETATM   24  C   UNL     1       1.203   0.591  -0.635  1.00  0.00     0.201 C 
ENDBRANCH  22  23
ENDBRANCH  21  22
ENDBRANCH   1  21
TORSDOF 7
