REMARK  6 active torsions:
REMARK  status: ('A' for Active; 'I' for Inactive)
REMARK    1  A    between atoms: C_8  and  N_9 
REMARK    2  A    between atoms: N_9  and  C_10 
REMARK    3  A    between atoms: C_10  and  C_11 
REMARK    4  A    between atoms: C_11  and  O_12 
REMARK    5  A    between atoms: O_12  and  C_13 
REMARK    6  A    between atoms: C_13  and  C_14 
ROOT
HETATM    1  N   UNL     1       5.189   2.361  -0.109  1.00  0.00    -0.373 N 
HETATM    2  H   UNL     1       4.523   3.121  -0.026  1.00  0.00     0.161 HD
ENDROOT
BRANCH   1   3
HETATM    3  C   UNL     1       4.590   1.129  -0.018  1.00  0.00     0.124 A 
HETATM    4  C   UNL     1       5.210  -0.140  -0.032  1.00  0.00     0.049 A 
HETATM    5  N   UNL     1       4.498  -1.301   0.044  1.00  0.00    -0.365 N 
HETATM    6  C   UNL     1       6.686  -0.365  -0.122  1.00  0.00     0.072 C 
HETATM    7  C   UNL     1       3.162  -1.180   0.122  1.00  0.00     0.112 A 
ATOM      8  HN  UNL     1       4.955  -2.213   0.042  1.00  0.00     0.165 HD
HETATM    9  C   UNL     1       2.531   0.049   0.134  1.00  0.00     0.022 A 
HETATM   10  C   UNL     1       1.039   0.137   0.227  1.00  0.00     0.069 C 
HETATM   11  N   UNL     1       3.237   1.209   0.067  1.00  0.00    -0.344 N 
ATOM     12  HN  UNL     1       2.764   2.113   0.080  1.00  0.00     0.167 HD
ENDBRANCH   1   3
BRANCH   1  13
HETATM   13  C   UNL     1       6.608   2.626  -0.101  1.00  0.00     0.147 C 
BRANCH  13  14
HETATM   14  C   UNL     1       6.994   4.106  -0.117  1.00  0.00     0.187 C 
BRANCH  14  15
HETATM   15  O   UNL     1       8.427   4.140  -0.165  1.00  0.00    -0.387 OA
BRANCH  15  16
HETATM   16  C   UNL     1       8.963   5.458  -0.183  1.00  0.00     0.199 C 
BRANCH  16  17
HETATM   17  C   UNL     1      10.489   5.383  -0.267  1.00  0.00     0.145 C 
HETATM   18  C   UNL     1      11.147   4.643   0.892  1.00  0.00     0.036 C 
HETATM   19  C   UNL     1      12.426   5.410   1.161  1.00  0.00     0.029 C 
HETATM   20  C   UNL     1      12.420   6.545   0.158  1.00  0.00     0.168 C 
HETATM   21  O   UNL     1      11.063   6.698  -0.265  1.00  0.00    -0.384 OA
ENDBRANCH  16  17
ENDBRANCH  15  16
ENDBRANCH  14  15
ENDBRANCH  13  14
ENDBRANCH   1  13
TORSDOF 6
