REMARK  5 active torsions:
REMARK  status: ('A' for Active; 'I' for Inactive)
REMARK    1  A    between atoms: C_2  and  O_3 
REMARK    2  A    between atoms: O_3  and  C_4 
REMARK    3  A    between atoms: C_4  and  C_5 
REMARK       I    between atoms: C_5  and  N_7 
REMARK    4  A    between atoms: N_7  and  C_8 
REMARK    5  A    between atoms: C_11  and  N_15 
ROOT
HETATM    1  C   UNL     1       6.653   4.566   0.023  1.00  0.00     0.107 A 
HETATM    2  C   UNL     1       5.767   5.614   0.190  1.00  0.00     0.051 A 
HETATM    3  C   UNL     1       6.257   6.913   0.138  1.00  0.00     0.034 A 
HETATM    4  C   UNL     1       7.607   7.169  -0.117  1.00  0.00     0.046 A 
HETATM    5  C   UNL     1       8.412   6.030  -0.203  1.00  0.00     0.119 A 
HETATM    6  N   UNL     1       7.980   4.742  -0.107  1.00  0.00    -0.350 N 
ATOM      7  HN  UNL     1       8.627   3.954  -0.132  1.00  0.00     0.166 HD
ENDROOT
BRANCH   1   8
HETATM    8  N   UNL     1       6.209   3.248  -0.007  1.00  0.00    -0.311 N 
HETATM    9  C   UNL     1       5.058   2.863  -0.669  1.00  0.00     0.246 C 
HETATM   10  O   UNL     1       4.333   3.604  -1.331  1.00  0.00    -0.271 OA
HETATM   11  H   UNL     1       6.931   2.560   0.146  1.00  0.00     0.170 HD
BRANCH   9  12
HETATM   12  C   UNL     1       4.769   1.375  -0.552  1.00  0.00     0.270 C 
BRANCH  12  13
HETATM   13  O   UNL     1       4.429   1.105   0.803  1.00  0.00    -0.382 OA
BRANCH  13  14
HETATM   14  C   UNL     1       3.973  -0.229   0.990  1.00  0.00     0.163 C 
HETATM   15  C   UNL     1       3.512  -0.354   2.428  1.00  0.00     0.033 C 
ENDBRANCH  13  14
ENDBRANCH  12  13
ENDBRANCH   9  12
ENDBRANCH   1   8
BRANCH   4  16
HETATM   16  N   UNL     1       8.054   8.471  -0.208  1.00  0.00    -0.376 N 
HETATM   17  C   UNL     1       9.473   8.834  -0.090  1.00  0.00     0.149 C 
HETATM   18  C   UNL     1       9.552  10.269   0.469  1.00  0.00     0.187 C 
HETATM   19  O   UNL     1       8.825  11.207  -0.346  1.00  0.00    -0.388 OA
HETATM   20  C   UNL     1       7.442  10.824  -0.445  1.00  0.00     0.187 C 
HETATM   21  C   UNL     1       7.300   9.421  -1.053  1.00  0.00     0.149 C 
ENDBRANCH   4  16
TORSDOF 5
