REMARK  5 active torsions:
REMARK  status: ('A' for Active; 'I' for Inactive)
REMARK    1  A    between atoms: C_2  and  C_3 
REMARK       I    between atoms: C_2  and  N_9 
REMARK    2  A    between atoms: C_3  and  C_4 
REMARK    3  A    between atoms: N_9  and  C_10 
REMARK    4  A    between atoms: C_10  and  C_11 
REMARK    5  A    between atoms: C_11  and  C_12 
ROOT
HETATM    1  O   UNL     1       1.087  -0.187  -0.030  1.00  0.00    -0.274 OA
HETATM    2  C   UNL     1       2.311  -0.112   0.010  1.00  0.00     0.217 C 
HETATM    3  N   UNL     1       3.145  -1.000  -0.633  1.00  0.00    -0.361 N 
HETATM    4  H   UNL     1       4.141  -0.940  -0.471  1.00  0.00     0.162 HD
ENDROOT
BRANCH   3   5
HETATM    5  C   UNL     1       2.601  -2.153  -1.333  1.00  0.00     0.127 C 
BRANCH   5   6
HETATM    6  C   UNL     1       3.698  -3.026  -1.942  1.00  0.00     0.059 C 
BRANCH   6   7
HETATM    7  C   UNL     1       3.154  -4.212  -2.689  1.00  0.00    -0.041 A 
HETATM    8  C   UNL     1       2.885  -4.150  -4.058  1.00  0.00     0.010 A 
HETATM    9  C   UNL     1       2.385  -5.271  -4.715  1.00  0.00     0.018 A 
HETATM   10  C   UNL     1       2.163  -6.421  -3.977  1.00  0.00     0.087 A 
HETATM   11  N   UNL     1       2.403  -6.518  -2.652  1.00  0.00    -0.375 N 
HETATM   12  C   UNL     1       2.889  -5.415  -2.040  1.00  0.00     0.094 A 
ATOM     13  HN  UNL     1       2.226  -7.381  -2.138  1.00  0.00     0.164 HD
ENDBRANCH   6   7
ENDBRANCH   5   6
ENDBRANCH   3   5
BRANCH   2  14
HETATM   14  C   UNL     1       3.027   0.995   0.760  1.00  0.00     0.107 C 
BRANCH  14  15
HETATM   15  C   UNL     1       3.291   2.214  -0.121  1.00  0.00    -0.006 C 
HETATM   16  C   UNL     1       4.039   3.326   0.627  1.00  0.00     0.005 C 
HETATM   17  C   UNL     1       3.567   4.646   0.014  1.00  0.00     0.000 C 
HETATM   18  C   UNL     1       2.525   4.280  -1.035  1.00  0.00     0.000 C 
HETATM   19  C   UNL     1       2.020   2.913  -0.604  1.00  0.00     0.005 C 
ENDBRANCH  14  15
ENDBRANCH   2  14
TORSDOF 5
