REMARK  4 active torsions:
REMARK  status: ('A' for Active; 'I' for Inactive)
REMARK    1  A    between atoms: C_2  and  N_3 
REMARK    2  A    between atoms: C_8  and  N_9 
REMARK       I    between atoms: N_9  and  C_10 
REMARK       I    between atoms: C_10  and  N_12 
REMARK    3  A    between atoms: N_12  and  C_13 
REMARK    4  A    between atoms: C_13  and  C_14 
ROOT
HETATM    1  N   UNL     1       4.996  -0.632   4.025  1.00  0.00    -0.304 N 
HETATM    2  C   UNL     1       5.328  -1.956   3.948  1.00  0.00     0.320 C 
HETATM    3  O   UNL     1       4.983  -2.737   3.070  1.00  0.00    -0.247 OA
HETATM    4  N   UNL     1       6.122  -2.405   4.966  1.00  0.00    -0.342 N 
HETATM    5  H   UNL     1       5.333  -0.095   4.813  1.00  0.00     0.171 HD
HETATM    6  H   UNL     1       6.326  -3.397   4.925  1.00  0.00     0.164 HD
ENDROOT
BRANCH   1   7
HETATM    7  C   UNL     1       4.246   0.126   3.164  1.00  0.00     0.102 A 
HETATM    8  C   UNL     1       4.070   1.570   3.546  1.00  0.00     0.201 A 
HETATM    9  C   UNL     1       3.296   2.438   2.629  1.00  0.00     0.074 A 
HETATM   10  O   UNL     1       4.563   2.012   4.583  1.00  0.00    -0.286 OA
HETATM   11  C   UNL     1       2.792   1.886   1.518  1.00  0.00     0.094 A 
HETATM   12  N   UNL     1       2.938   0.547   1.176  1.00  0.00    -0.364 N 
HETATM   13  C   UNL     1       3.670  -0.275   2.028  1.00  0.00     0.124 A 
BRANCH  12  14
HETATM   14  C   UNL     1       2.444   0.016  -0.103  1.00  0.00     0.123 C 
HETATM   15  C   UNL     1       3.541   0.076  -1.155  1.00  0.00     0.027 C 
ENDBRANCH  12  14
ENDBRANCH   1   7
BRANCH   4  16
HETATM   16  C   UNL     1       6.565  -1.627   6.094  1.00  0.00     0.129 C 
BRANCH  16  17
HETATM   17  C   UNL     1       7.379  -2.431   7.045  1.00  0.00     0.003 A 
HETATM   18  C   UNL     1       6.821  -3.622   7.777  1.00  0.00     0.007 A 
HETATM   19  C   UNL     1       7.042  -2.331   8.512  1.00  0.00     0.007 A 
ENDBRANCH  16  17
ENDBRANCH   4  16
TORSDOF 4
