REMARK  4 active torsions:
REMARK  status: ('A' for Active; 'I' for Inactive)
REMARK    1  A    between atoms: C_4  and  N_5 
REMARK       I    between atoms: N_5  and  C_6 
REMARK       I    between atoms: C_6  and  N_8 
REMARK    2  A    between atoms: N_8  and  C_9 
REMARK    3  A    between atoms: C_9  and  C_10 
REMARK    4  A    between atoms: C_10  and  N_11 
ROOT
HETATM    1  N   UNL     1       6.060   1.583  -0.585  1.00  0.00    -0.293 N 
HETATM    2  C   UNL     1       5.931   2.935  -0.693  1.00  0.00     0.321 C 
HETATM    3  O   UNL     1       4.932   3.408  -1.231  1.00  0.00    -0.247 OA
HETATM    4  N   UNL     1       6.955   3.691  -0.211  1.00  0.00    -0.341 N 
HETATM    5  H   UNL     1       5.305   1.062  -1.002  1.00  0.00     0.172 HD
HETATM    6  H   UNL     1       7.599   3.213   0.412  1.00  0.00     0.164 HD
ENDROOT
BRANCH   1   7
HETATM    7  C   UNL     1       7.072   0.884   0.039  1.00  0.00     0.132 A 
HETATM    8  C   UNL     1       7.160  -0.525   0.093  1.00  0.00     0.084 A 
HETATM    9  C   UNL     1       8.313  -0.768   0.804  1.00  0.00     0.076 A 
HETATM   10  C   UNL     1       9.029  -1.975   1.235  1.00  0.00     0.079 C 
HETATM   11  O   UNL     1       8.875   0.414   1.158  1.00  0.00    -0.241 OA
HETATM   12  N   UNL     1       8.101   1.447   0.686  1.00  0.00    -0.245 N 
ATOM     13  HN  UNL     1       8.276   2.445   0.805  1.00  0.00     0.196 HD
ENDBRANCH   1   7
BRANCH   4  14
HETATM   14  C   UNL     1       6.866   5.124  -0.121  1.00  0.00     0.154 C 
BRANCH  14  15
HETATM   15  C   UNL     1       8.253   5.785  -0.074  1.00  0.00     0.292 C 
BRANCH  15  16
HETATM   16  N   UNL     1       8.246   7.263  -0.065  1.00  0.00     0.090 N 
HETATM   17  C   UNL     1       7.488   7.775   1.085  1.00  0.00     0.272 C 
HETATM   18  C   UNL     1       7.906   9.193   1.455  1.00  0.00     0.030 C 
HETATM   19  C   UNL     1       7.165  10.300   0.714  1.00  0.00     0.002 C 
HETATM   20  C   UNL     1       6.817  10.042  -0.747  1.00  0.00     0.002 C 
HETATM   21  C   UNL     1       7.885   9.294  -1.535  1.00  0.00     0.030 C 
HETATM   22  C   UNL     1       7.793   7.778  -1.363  1.00  0.00     0.272 C 
ENDBRANCH  15  16
ENDBRANCH  14  15
ENDBRANCH   4  14
TORSDOF 4
