REMARK  5 active torsions:
REMARK  status: ('A' for Active; 'I' for Inactive)
REMARK       I    between atoms: C_2  and  N_4 
REMARK    1  A    between atoms: N_8  and  C_9 
REMARK    2  A    between atoms: C_9  and  C_10 
REMARK    3  A    between atoms: C_10  and  O_11 
REMARK    4  A    between atoms: C_10  and  C_12 
REMARK    5  A    between atoms: C_12  and  N_13 
ROOT
HETATM    1  C   UNL     1       4.288  -4.845   4.857  1.00  0.00     0.164 C 
ENDROOT
BRANCH   1   2
HETATM    2  C   UNL     1       3.531  -4.710   3.503  1.00  0.00     0.305 C 
BRANCH   2   3
HETATM    3  N   UNL     1       3.401  -3.328   2.983  1.00  0.00     0.092 N 
HETATM    4  C   UNL     1       2.659  -2.454   3.906  1.00  0.00     0.274 C 
HETATM    5  C   UNL     1       2.111  -1.120   3.397  1.00  0.00     0.050 C 
HETATM    6  C   UNL     1       3.097  -0.376   2.512  1.00  0.00     0.127 C 
HETATM    7  N   UNL     1       2.949  -0.806   1.123  1.00  0.00    -0.351 N 
HETATM    8  C   UNL     1       2.209  -0.003   0.264  1.00  0.00     0.215 C 
HETATM    9  C   UNL     1       3.488  -2.129   0.789  1.00  0.00     0.156 C 
HETATM   10  C   UNL     1       1.982  -0.507  -1.137  1.00  0.00     0.117 C 
HETATM   11  O   UNL     1       1.726   1.077   0.607  1.00  0.00    -0.274 OA
HETATM   12  C   UNL     1       2.886  -3.299   1.603  1.00  0.00     0.292 C 
ENDBRANCH   2   3
ENDBRANCH   1   2
BRANCH   1  13
HETATM   13  O   UNL     1       3.582  -4.192   5.922  1.00  0.00    -0.392 OA
HETATM   14  H   UNL     1       2.650  -4.460   5.885  1.00  0.00     0.210 HD
ENDBRANCH   1  13
BRANCH   1  15
HETATM   15  C   UNL     1       4.448  -6.321   5.243  1.00  0.00     0.163 C 
BRANCH  15  16
HETATM   16  N   UNL     1       5.213  -6.484   6.468  1.00  0.00    -0.339 N 
HETATM   17  C   UNL     1       4.689  -6.459   7.732  1.00  0.00     0.184 A 
HETATM   18  N   UNL     1       5.611  -6.658   8.644  1.00  0.00    -0.350 N 
HETATM   19  C   UNL     1       6.781  -6.788   7.943  1.00  0.00     0.060 A 
ATOM     20  HN  UNL     1       5.484  -6.706   9.655  1.00  0.00     0.166 HD
HETATM   21  C   UNL     1       8.084  -6.999   8.412  1.00  0.00     0.039 A 
HETATM   22  C   UNL     1       6.566  -6.682   6.572  1.00  0.00     0.062 A 
HETATM   23  C   UNL     1       9.152  -7.106   7.498  1.00  0.00    -0.054 A 
HETATM   24  C   UNL     1      10.532  -7.345   8.044  1.00  0.00     0.049 C 
HETATM   25  C   UNL     1       8.905  -6.989   6.114  1.00  0.00    -0.054 A 
HETATM   26  C   UNL     1       9.997  -7.088   5.078  1.00  0.00     0.049 C 
HETATM   27  C   UNL     1       7.596  -6.771   5.636  1.00  0.00     0.039 A 
ENDBRANCH  15  16
ENDBRANCH   1  15
TORSDOF 5
