REMARK  5 active torsions:
REMARK  status: ('A' for Active; 'I' for Inactive)
REMARK    1  A    between atoms: C_2  and  C_3 
REMARK    2  A    between atoms: C_3  and  C_4 
REMARK    3  A    between atoms: C_4  and  N_5 
REMARK       I    between atoms: N_5  and  C_6 
REMARK       I    between atoms: C_6  and  N_8 
REMARK    4  A    between atoms: N_8  and  C_9 
REMARK    5  A    between atoms: C_12  and  N_16 
ROOT
HETATM    1  C   UNL     1       8.408  -2.813   3.650  1.00  0.00     0.051 A 
HETATM    2  C   UNL     1       9.264  -1.728   3.750  1.00  0.00     0.035 A 
HETATM    3  C   UNL     1      10.632  -1.932   3.919  1.00  0.00     0.051 A 
HETATM    4  C   UNL     1      11.162  -3.218   3.994  1.00  0.00     0.103 A 
HETATM    5  N   UNL     1      10.326  -4.281   3.997  1.00  0.00    -0.350 N 
ATOM      6  HN  UNL     1      10.687  -5.227   4.118  1.00  0.00     0.166 HD
HETATM    7  C   UNL     1       8.988  -4.061   3.835  1.00  0.00     0.119 A 
ENDROOT
BRANCH   1   8
HETATM    8  N   UNL     1       7.026  -2.678   3.363  1.00  0.00    -0.308 N 
HETATM    9  C   UNL     1       6.488  -1.580   2.721  1.00  0.00     0.320 C 
HETATM   10  N   UNL     1       5.121  -1.685   2.547  1.00  0.00    -0.343 N 
HETATM   11  O   UNL     1       7.116  -0.617   2.300  1.00  0.00    -0.247 OA
HETATM   12  H   UNL     1       4.627  -2.106   3.318  1.00  0.00     0.164 HD
HETATM   13  H   UNL     1       6.474  -3.522   3.316  1.00  0.00     0.170 HD
BRANCH  10  14
HETATM   14  C   UNL     1       4.478  -0.561   1.883  1.00  0.00     0.124 C 
BRANCH  14  15
HETATM   15  C   UNL     1       2.986  -0.753   1.647  1.00  0.00     0.019 C 
BRANCH  15  16
HETATM   16  C   UNL     1       2.423   0.454   0.889  1.00  0.00    -0.003 C 
HETATM   17  C   UNL     1       0.929   0.328   0.640  1.00  0.00     0.005 C 
ENDBRANCH  15  16
ENDBRANCH  14  15
ENDBRANCH  10  14
ENDBRANCH   1   8
BRANCH   4  18
HETATM   18  N   UNL     1      12.527  -3.405   4.109  1.00  0.00    -0.363 N 
HETATM   19  C   UNL     1      13.483  -2.529   3.413  1.00  0.00     0.150 C 
HETATM   20  C   UNL     1      14.223  -3.292   2.302  1.00  0.00     0.187 C 
HETATM   21  O   UNL     1      14.838  -4.487   2.802  1.00  0.00    -0.388 OA
HETATM   22  C   UNL     1      13.832  -5.367   3.333  1.00  0.00     0.187 C 
HETATM   23  C   UNL     1      13.063  -4.717   4.492  1.00  0.00     0.150 C 
ENDBRANCH   4  18
TORSDOF 5
