REMARK  5 active torsions:
REMARK  status: ('A' for Active; 'I' for Inactive)
REMARK    1  A    between atoms: C_2  and  N_3 
REMARK    2  A    between atoms: C_2  and  C_18 
REMARK       I    between atoms: N_3  and  C_4 
REMARK    3  A    between atoms: C_4  and  C_6 
REMARK    4  A    between atoms: C_6  and  N_7 
REMARK    5  A    between atoms: C_9  and  C_14 
ROOT
HETATM    1  C   UNL     1       3.044   1.571   3.465  1.00  0.00     0.234 C 
ENDROOT
BRANCH   1   2
HETATM    2  C   UNL     1       2.577   1.458   2.013  1.00  0.00     0.236 C 
HETATM    3  N   UNL     1       2.815   0.241   1.414  1.00  0.00    -0.353 N 
HETATM    4  H   UNL     1       3.440  -0.414   1.875  1.00  0.00     0.163 HD
HETATM    5  O   UNL     1       1.969   2.371   1.457  1.00  0.00    -0.272 OA
BRANCH   3   6
HETATM    6  C   UNL     1       2.472  -0.026   0.015  1.00  0.00     0.109 C 
HETATM    7  C   UNL     1       2.133  -1.510  -0.128  1.00  0.00     0.035 C 
BRANCH   6   8
HETATM    8  C   UNL     1       3.607   0.441  -0.926  1.00  0.00     0.143 C 
HETATM    9  C   UNL     1       3.281   0.383  -2.416  1.00  0.00     0.036 C 
HETATM   10  C   UNL     1       4.578  -0.036  -3.081  1.00  0.00     0.029 C 
HETATM   11  C   UNL     1       5.570  -0.166  -1.946  1.00  0.00     0.168 C 
HETATM   12  O   UNL     1       4.789  -0.366  -0.764  1.00  0.00    -0.384 OA
ENDBRANCH   6   8
ENDBRANCH   3   6
ENDBRANCH   1   2
BRANCH   1  13
HETATM   13  N   UNL     1       1.968   1.240   4.401  1.00  0.00    -0.315 N 
HETATM   14  C   UNL     1       1.072   2.225   4.794  1.00  0.00     0.110 A 
HETATM   15  C   UNL     1       0.092   1.978   5.683  1.00  0.00     0.063 A 
HETATM   16  C   UNL     1      -0.028   0.636   6.227  1.00  0.00     0.023 A 
HETATM   17  C   UNL     1       0.805  -0.342   5.847  1.00  0.00     0.075 A 
HETATM   18  C   UNL     1       1.882  -0.072   4.858  1.00  0.00     0.247 A 
HETATM   19  O   UNL     1       2.632  -0.981   4.512  1.00  0.00    -0.268 OA
BRANCH  15  20
HETATM   20  C   UNL     1      -0.856   3.051   6.146  1.00  0.00     0.418 C 
HETATM   21  F   UNL     1      -1.723   2.618   7.099  1.00  0.00    -0.166 F 
HETATM   22  F   UNL     1      -0.190   4.107   6.681  1.00  0.00    -0.166 F 
HETATM   23  F   UNL     1      -1.609   3.536   5.127  1.00  0.00    -0.166 F 
ENDBRANCH  15  20
ENDBRANCH   1  13
TORSDOF 5
