REMARK  3 active torsions:
REMARK  status: ('A' for Active; 'I' for Inactive)
REMARK    1  A    between atoms: C_4  and  C_5 
REMARK    2  A    between atoms: C_5  and  C_6 
REMARK    3  A    between atoms: C_6  and  N_7 
REMARK       I    between atoms: N_7  and  C_8 
REMARK       I    between atoms: C_8  and  N_10 
ROOT
HETATM    1  N   UNL     1       6.779   3.927   0.054  1.00  0.00    -0.343 N 
HETATM    2  C   UNL     1       6.717   5.295   0.118  1.00  0.00     0.318 C 
HETATM    3  O   UNL     1       5.648   5.896   0.191  1.00  0.00    -0.247 OA
HETATM    4  N   UNL     1       7.939   5.931   0.093  1.00  0.00    -0.330 N 
HETATM    5  C   UNL     1       8.001   7.385   0.261  1.00  0.00     0.153 C 
HETATM    6  C   UNL     1       8.686   8.048  -0.939  1.00  0.00     0.187 C 
HETATM    7  O   UNL     1       9.976   7.463  -1.190  1.00  0.00    -0.388 OA
HETATM    8  C   UNL     1       9.845   6.059  -1.463  1.00  0.00     0.187 C 
HETATM    9  C   UNL     1       9.226   5.323  -0.270  1.00  0.00     0.153 C 
HETATM   10  H   UNL     1       7.565   3.528   0.541  1.00  0.00     0.164 HD
ENDROOT
BRANCH   1  11
HETATM   11  C   UNL     1       5.554   3.145   0.062  1.00  0.00     0.129 C 
BRANCH  11  12
HETATM   12  C   UNL     1       5.801   1.645  -0.117  1.00  0.00     0.061 C 
BRANCH  12  13
HETATM   13  C   UNL     1       6.450   1.287  -1.412  1.00  0.00    -0.023 A 
HETATM   14  C   UNL     1       5.979   1.485  -2.694  1.00  0.00     0.118 A 
HETATM   15  N   UNL     1       6.932   0.991  -3.536  1.00  0.00    -0.308 N 
HETATM   16  C   UNL     1       6.895   0.977  -4.978  1.00  0.00     0.177 C 
HETATM   17  N   UNL     1       7.993   0.474  -2.894  1.00  0.00    -0.310 N 
HETATM   18  C   UNL     1       7.695   0.646  -1.604  1.00  0.00     0.115 A 
ATOM     19  HN  UNL     1       8.829   0.050  -3.297  1.00  0.00     0.186 HD
ENDBRANCH  12  13
ENDBRANCH  11  12
ENDBRANCH   1  11
TORSDOF 3
