REMARK  7 active torsions:
REMARK  status: ('A' for Active; 'I' for Inactive)
REMARK    1  A    between atoms: C_2  and  C_3 
REMARK    2  A    between atoms: C_3  and  C_4 
REMARK    3  A    between atoms: C_4  and  N_6 
REMARK    4  A    between atoms: C_4  and  C_16 
REMARK       I    between atoms: N_6  and  C_7 
REMARK    5  A    between atoms: C_7  and  C_9 
REMARK    6  A    between atoms: C_9  and  N_10 
REMARK    7  A    between atoms: C_16  and  O_18 
ROOT
HETATM    1  N   UNL     1       5.225   0.704   1.165  1.00  0.00    -0.341 N 
HETATM    2  C   UNL     1       6.595   0.955   1.144  1.00  0.00     0.238 C 
HETATM    3  O   UNL     1       7.435   0.092   1.376  1.00  0.00    -0.272 OA
HETATM    4  H   UNL     1       4.675   1.315   0.569  1.00  0.00     0.163 HD
ENDROOT
BRANCH   1   5
HETATM    5  C   UNL     1       4.708  -0.693   1.328  1.00  0.00     0.114 C 
HETATM    6  C   UNL     1       5.195  -1.622   0.206  1.00  0.00     0.050 C 
BRANCH   5   7
HETATM    7  C   UNL     1       3.149  -0.616   1.316  1.00  0.00     0.041 C 
BRANCH   7   8
HETATM    8  C   UNL     1       2.426  -1.936   1.617  1.00  0.00    -0.002 C 
HETATM    9  C   UNL     1       0.914  -1.767   1.626  1.00  0.00     0.005 C 
ENDBRANCH   7   8
ENDBRANCH   5   7
BRANCH   5  10
HETATM   10  C   UNL     1       5.129  -1.222   2.730  1.00  0.00     0.169 C 
HETATM   11  O   UNL     1       5.393  -2.384   3.000  1.00  0.00    -0.648 OA
BRANCH  10  12
HETATM   12  O   UNL     1       4.998  -0.274   3.702  1.00  0.00    -0.775 OA
HETATM   13  H   UNL     1       4.727   0.579   3.310  1.00  0.00     0.167 HD
ENDBRANCH  10  12
ENDBRANCH   5  10
ENDBRANCH   1   5
BRANCH   2  14
HETATM   14  C   UNL     1       6.981   2.406   0.940  1.00  0.00     0.250 C 
BRANCH  14  15
HETATM   15  N   UNL     1       7.745   2.612  -0.279  1.00  0.00    -0.295 N 
HETATM   16  C   UNL     1       9.104   2.593  -0.411  1.00  0.00     0.112 A 
HETATM   17  C   UNL     1       9.369   3.021  -1.692  1.00  0.00     0.037 A 
HETATM   18  C   UNL     1       8.104   3.276  -2.250  1.00  0.00     0.108 A 
HETATM   19  N   UNL     1       7.106   3.028  -1.394  1.00  0.00    -0.310 N 
ATOM     20  HN  UNL     1       6.103   3.129  -1.547  1.00  0.00     0.186 HD
ENDBRANCH  14  15
ENDBRANCH   2  14
TORSDOF 7
