REMARK  4 active torsions:
REMARK  status: ('A' for Active; 'I' for Inactive)
REMARK    1  A    between atoms: N_6  and  C_7 
REMARK    2  A    between atoms: C_7  and  C_8 
REMARK    3  A    between atoms: C_8  and  O_9 
REMARK    4  A    between atoms: C_8  and  C_10 
ROOT
HETATM    1  C   UNL     3       5.019   2.892   0.568  1.00  0.00    -0.013 A 
HETATM    2  C   UNL     3       4.690   3.896  -0.361  1.00  0.00     0.012 A 
HETATM    3  C   UNL     3       5.167   5.197  -0.188  1.00  0.00     0.018 A 
HETATM    4  C   UNL     3       5.973   5.490   0.915  1.00  0.00     0.087 A 
HETATM    5  N   UNL     3       6.281   4.514   1.808  1.00  0.00    -0.375 N 
ATOM      6  HN  UNL     3       6.867   4.743   2.611  1.00  0.00     0.164 HD
HETATM    7  C   UNL     3       5.830   3.241   1.662  1.00  0.00     0.097 A 
ENDROOT
BRANCH   1   8
HETATM    8  C   UNL     3       4.534   1.465   0.404  1.00  0.00     0.180 C 
BRANCH   8   9
HETATM    9  C   UNL     3       2.996   1.355   0.422  1.00  0.00     0.305 C 
BRANCH   9  10
HETATM   10  N   UNL     3       2.591  -0.056   0.425  1.00  0.00     0.082 N 
HETATM   11  C   UNL     3       1.135  -0.199   0.444  1.00  0.00     0.306 C 
HETATM   12  H   UNL     3       2.953  -0.530  -0.435  1.00  0.00     0.315 HD
ENDBRANCH   9  10
ENDBRANCH   8   9
BRANCH   8  13
HETATM   13  O   UNL     3       5.070   0.896  -0.766  1.00  0.00    -0.389 OA
HETATM   14  H   UNL     3       4.685   1.377  -1.545  1.00  0.00     0.210 HD
ENDBRANCH   8  13
ENDBRANCH   1   8
TORSDOF 4
