REMARK  7 active torsions:
REMARK  status: ('A' for Active; 'I' for Inactive)
REMARK    1  A    between atoms: O_2  and  C_3 
REMARK    2  A    between atoms: N_8  and  C_9 
REMARK    3  A    between atoms: C_9  and  C_10 
REMARK    4  A    between atoms: C_10  and  O_11 
REMARK    5  A    between atoms: C_10  and  C_12 
REMARK    6  A    between atoms: C_12  and  C_13 
REMARK    7  A    between atoms: C_13  and  C_14 
ROOT
HETATM    1  C   UNL     1       3.400  -4.357   1.677  1.00  0.00     0.184 C 
ENDROOT
BRANCH   1   2
HETATM    2  N   UNL     1       3.464  -2.908   1.814  1.00  0.00    -0.253 N 
HETATM    3  C   UNL     1       4.573  -2.224   1.331  1.00  0.00     0.262 A 
HETATM    4  C   UNL     1       4.502  -0.747   1.391  1.00  0.00     0.080 A 
HETATM    5  O   UNL     1       5.571  -2.763   0.858  1.00  0.00    -0.267 OA
HETATM    6  C   UNL     1       3.422  -0.134   1.880  1.00  0.00     0.063 A 
HETATM    7  C   UNL     1       2.365  -1.007   2.385  1.00  0.00     0.156 A 
HETATM    8  N   UNL     1       2.352  -2.297   2.361  1.00  0.00    -0.275 N 
ATOM      9  HN  UNL     1       1.566  -2.835   2.725  1.00  0.00     0.189 HD
BRANCH   7  10
HETATM   10  O   UNL     1       1.370  -0.253   2.907  1.00  0.00    -0.340 OA
HETATM   11  C   UNL     1       0.308  -0.966   3.551  1.00  0.00     0.211 C 
ENDBRANCH   7  10
ENDBRANCH   1   2
BRANCH   1  12
HETATM   12  C   UNL     1       2.784  -4.783   0.330  1.00  0.00     0.138 C 
BRANCH  12  13
HETATM   13  O   UNL     1       3.545  -4.287  -0.781  1.00  0.00    -0.394 OA
HETATM   14  H   UNL     1       4.489  -4.278  -0.532  1.00  0.00     0.210 HD
ENDBRANCH  12  13
BRANCH  12  15
HETATM   15  C   UNL     1       2.711  -6.306   0.178  1.00  0.00     0.038 C 
BRANCH  15  16
HETATM   16  C   UNL     1       1.846  -6.978   1.245  1.00  0.00     0.041 C 
BRANCH  16  17
HETATM   17  C   UNL     1       1.828  -8.474   1.074  1.00  0.00    -0.058 A 
HETATM   18  C   UNL     1       2.801  -9.267   1.697  1.00  0.00     0.007 A 
HETATM   19  C   UNL     1       2.801 -10.650   1.522  1.00  0.00     0.001 A 
HETATM   20  C   UNL     1       1.833 -11.250   0.719  1.00  0.00     0.000 A 
HETATM   21  C   UNL     1       0.863 -10.468   0.095  1.00  0.00     0.001 A 
HETATM   22  C   UNL     1       0.860  -9.084   0.269  1.00  0.00     0.007 A 
ENDBRANCH  16  17
ENDBRANCH  15  16
ENDBRANCH  12  15
ENDBRANCH   1  12
TORSDOF 7
