REMARK  3 active torsions:
REMARK  status: ('A' for Active; 'I' for Inactive)
REMARK    1  A    between atoms: N_7  and  C_8 
REMARK    2  A    between atoms: C_8  and  C_9 
REMARK       I    between atoms: C_9  and  N_11 
REMARK    3  A    between atoms: N_11  and  C_12 
ROOT
HETATM    1  C   UNL     1       4.559  -3.913  -1.549  1.00  0.00     0.236 C 
HETATM    2  O   UNL     1       3.837  -3.932  -2.546  1.00  0.00    -0.272 OA
HETATM    3  N   UNL     1       4.556  -4.926  -0.603  1.00  0.00    -0.355 N 
HETATM    4  H   UNL     1       5.237  -4.900   0.146  1.00  0.00     0.162 HD
ENDROOT
BRANCH   3   5
HETATM    5  C   UNL     1       3.614  -6.039  -0.677  1.00  0.00     0.089 C 
HETATM    6  C   UNL     1       3.337  -6.693   0.682  1.00  0.00     0.066 C 
HETATM    7  C   UNL     1       4.271  -7.854   1.076  1.00  0.00     0.153 C 
HETATM    8  C   UNL     1       5.613  -7.368   1.650  1.00  0.00     0.048 C 
HETATM    9  C   UNL     1       3.586  -8.650   2.217  1.00  0.00     0.048 C 
HETATM   10  N   UNL     1       4.453  -8.799  -0.033  1.00  0.00     0.101 N 
HETATM   11  C   UNL     1       4.830  -8.249  -1.346  1.00  0.00     0.153 C 
HETATM   12  H   UNL     1       3.594  -9.342  -0.145  1.00  0.00     0.317 HD
HETATM   13  C   UNL     1       6.316  -7.866  -1.418  1.00  0.00     0.048 C 
HETATM   14  C   UNL     1       4.632  -9.405  -2.359  1.00  0.00     0.048 C 
HETATM   15  C   UNL     1       3.917  -7.079  -1.767  1.00  0.00     0.066 C 
ENDBRANCH   3   5
BRANCH   1  16
HETATM   16  C   UNL     1       5.471  -2.719  -1.231  1.00  0.00     0.235 C 
BRANCH  16  17
HETATM   17  N   UNL     1       6.320  -2.363  -2.373  1.00  0.00    -0.301 N 
HETATM   18  C   UNL     1       5.847  -1.504  -3.338  1.00  0.00     0.102 C 
HETATM   19  C   UNL     1       6.584  -1.156  -4.388  1.00  0.00     0.092 C 
HETATM   20  C   UNL     1       7.928  -1.728  -4.551  1.00  0.00     0.252 C 
HETATM   21  N   UNL     1       8.306  -2.665  -3.609  1.00  0.00    -0.271 N 
HETATM   22  O   UNL     1       8.621  -1.354  -5.497  1.00  0.00    -0.268 OA
HETATM   23  C   UNL     1       9.569  -3.354  -3.779  1.00  0.00     0.164 C 
HETATM   24  C   UNL     1       7.572  -2.965  -2.463  1.00  0.00     0.331 C 
HETATM   25  O   UNL     1       7.994  -3.717  -1.581  1.00  0.00    -0.246 OA
ENDBRANCH  16  17
ENDBRANCH   1  16
TORSDOF 3
