REMARK  6 active torsions:
REMARK  status: ('A' for Active; 'I' for Inactive)
REMARK    1  A    between atoms: C_2  and  C_3 
REMARK    2  A    between atoms: C_3  and  N_4 
REMARK    3  A    between atoms: C_7  and  N_10 
REMARK    4  A    between atoms: N_10  and  C_11 
REMARK    5  A    between atoms: C_11  and  C_12 
REMARK    6  A    between atoms: C_12  and  C_13 
ROOT
HETATM    1  N   UNL     1       6.490  -1.338  -4.250  1.00  0.00     0.088 N 
HETATM    2  H   UNL     1       6.917  -1.048  -3.370  1.00  0.00     0.316 HD
ENDROOT
BRANCH   1   3
HETATM    3  C   UNL     1       5.019  -1.347  -4.106  1.00  0.00     0.223 C 
HETATM    4  C   UNL     1       4.523   0.055  -3.711  1.00  0.00     0.066 C 
HETATM    5  C   UNL     1       4.776   0.383  -2.234  1.00  0.00     0.274 C 
HETATM    6  N   UNL     1       4.303  -0.650  -1.291  1.00  0.00     0.088 N 
HETATM    7  C   UNL     1       4.865  -1.958  -1.663  1.00  0.00     0.274 C 
HETATM    8  C   UNL     1       4.499  -2.373  -3.087  1.00  0.00     0.066 C 
BRANCH   6   9
HETATM    9  C   UNL     1       2.831  -0.647  -1.187  1.00  0.00     0.272 C 
BRANCH   9  10
HETATM   10  C   UNL     1       2.285  -1.673  -0.185  1.00  0.00     0.026 C 
HETATM   11  C   UNL     1       0.768  -1.630  -0.115  1.00  0.00     0.007 C 
ENDBRANCH   9  10
ENDBRANCH   6   9
ENDBRANCH   1   3
BRANCH   1  12
HETATM   12  C   UNL     1       7.065  -2.640  -4.631  1.00  0.00     0.276 C 
BRANCH  12  13
HETATM   13  C   UNL     1       6.578  -3.134  -5.996  1.00  0.00     0.087 C 
BRANCH  13  14
HETATM   14  C   UNL     1       7.093  -4.510  -6.320  1.00  0.00     0.010 A 
HETATM   15  C   UNL     1       7.950  -4.707  -7.400  1.00  0.00     0.025 A 
HETATM   16  C   UNL     1       8.324  -6.006  -7.726  1.00  0.00     0.003 A 
HETATM   17  C   UNL     1       7.838  -7.067  -6.971  1.00  0.00     0.017 A 
HETATM   18  C   UNL     1       6.999  -6.782  -5.908  1.00  0.00     0.088 A 
HETATM   19  N   UNL     1       6.617  -5.533  -5.568  1.00  0.00    -0.369 N 
ATOM     20  HN  UNL     1       5.995  -5.365  -4.777  1.00  0.00     0.165 HD
ENDBRANCH  13  14
ENDBRANCH  12  13
ENDBRANCH   1  12
TORSDOF 6
