REMARK  4 active torsions:
REMARK  status: ('A' for Active; 'I' for Inactive)
REMARK    1  A    between atoms: C_2  and  C_3 
REMARK    2  A    between atoms: C_2  and  N_12 
REMARK       I    between atoms: C_3  and  N_5 
REMARK    3  A    between atoms: N_5  and  C_6 
REMARK    4  A    between atoms: C_6  and  C_7 
ROOT
HETATM    1  C   UNL     1       3.086   0.897  -1.223  1.00  0.00     0.242 C 
HETATM    2  O   UNL     1       3.953   1.758  -1.108  1.00  0.00    -0.271 OA
HETATM    3  N   UNL     1       2.570   0.535  -2.458  1.00  0.00    -0.359 N 
HETATM    4  H   UNL     1       1.905  -0.233  -2.501  1.00  0.00     0.162 HD
ENDROOT
BRANCH   1   5
HETATM    5  C   UNL     1       2.459   0.184  -0.032  1.00  0.00     0.195 C 
HETATM    6  C   UNL     1       3.011   0.681   1.300  1.00  0.00     0.044 C 
BRANCH   5   7
HETATM    7  N   UNL     1       2.614  -1.262  -0.155  1.00  0.00    -0.290 N 
HETATM    8  C   UNL     1       3.779  -1.974  -0.207  1.00  0.00     0.112 A 
HETATM    9  C   UNL     1       3.417  -3.298  -0.274  1.00  0.00     0.037 A 
HETATM   10  C   UNL     1       2.010  -3.283  -0.282  1.00  0.00     0.108 A 
HETATM   11  N   UNL     1       1.517  -2.042  -0.246  1.00  0.00    -0.309 N 
ATOM     12  HN  UNL     1       0.540  -1.752  -0.279  1.00  0.00     0.186 HD
ENDBRANCH   5   7
ENDBRANCH   1   5
BRANCH   3  13
HETATM   13  C   UNL     1       3.049   1.119  -3.693  1.00  0.00     0.129 C 
BRANCH  13  14
HETATM   14  C   UNL     1       4.295   0.427  -4.235  1.00  0.00     0.029 C 
HETATM   15  C   UNL     1       4.813   1.055  -5.517  1.00  0.00     0.034 C 
HETATM   16  C   UNL     1       5.390  -0.108  -6.305  1.00  0.00     0.168 C 
HETATM   17  O   UNL     1       5.081  -1.313  -5.599  1.00  0.00    -0.391 OA
HETATM   18  C   UNL     1       4.056  -1.013  -4.649  1.00  0.00     0.173 C 
ENDBRANCH  13  14
ENDBRANCH   3  13
TORSDOF 4
