REMARK  2 active torsions:
REMARK  status: ('A' for Active; 'I' for Inactive)
REMARK    1  A    between atoms: N_1  and  C_2 
REMARK    2  A    between atoms: C_7  and  C_10 
ROOT
HETATM    1  C   UNL     1       3.529   0.501  -1.176  1.00  0.00     0.154 A 
HETATM    2  N   UNL     1       2.325   0.470  -0.604  1.00  0.00    -0.343 N 
ATOM      3  HN  UNL     1       1.593   1.135  -0.853  1.00  0.00     0.167 HD
HETATM    4  C   UNL     1       2.131  -0.487   0.318  1.00  0.00     0.092 A 
HETATM    5  C   UNL     1       3.085  -1.414   0.671  1.00  0.00     0.042 A 
HETATM    6  C   UNL     1       4.292  -1.323   0.010  1.00  0.00     0.018 A 
HETATM    7  N   UNL     1       4.514  -0.370  -0.928  1.00  0.00    -0.336 N 
ATOM      8  HN  UNL     1       5.402  -0.319  -1.428  1.00  0.00     0.168 HD
ENDROOT
BRANCH   6   9
HETATM    9  C   UNL     1       5.466  -2.232   0.325  1.00  0.00     0.064 C 
HETATM   10  C   UNL     1       5.213  -3.731   0.065  1.00  0.00     0.014 C 
HETATM   11  C   UNL     1       4.737  -4.525   1.284  1.00  0.00     0.031 C 
HETATM   12  C   UNL     1       5.478  -4.144   2.560  1.00  0.00     0.269 C 
HETATM   13  N   UNL     1       5.367  -2.707   2.798  1.00  0.00     0.084 N 
HETATM   14  C   UNL     1       6.043  -1.961   1.728  1.00  0.00     0.280 C 
HETATM   15  H   UNL     1       5.810  -2.478   3.689  1.00  0.00     0.315 HD
ENDBRANCH   6   9
BRANCH   1  16
HETATM   16  N   UNL     1       3.759   1.483  -2.118  1.00  0.00    -0.274 NA
HETATM   17  H   UNL     1       2.876   1.795  -2.498  1.00  0.00     0.127 HD
HETATM   18  H   UNL     1       4.466   1.174  -2.769  1.00  0.00     0.127 HD
ENDBRANCH   1  16
TORSDOF 2
