REMARK  9 active torsions:
REMARK  status: ('A' for Active; 'I' for Inactive)
REMARK    1  A    between atoms: N_2  and  C_13 
REMARK    2  A    between atoms: C_6  and  N_8 
REMARK    3  A    between atoms: N_8  and  C_16 
REMARK    4  A    between atoms: N_8  and  C_22 
REMARK    5  A    between atoms: C_13  and  C_14 
REMARK    6  A    between atoms: C_14  and  O_19 
REMARK    7  A    between atoms: C_16  and  C_21 
REMARK    8  A    between atoms: C_22  and  C_25 
REMARK    9  A    between atoms: O_23  and  C_25 
ROOT
HETATM    1  C   UNL     1      -2.027  -0.762   0.933  1.00  0.00     0.122 C 
HETATM    2  N   UNL     1      -3.062   1.029   1.657  1.00  0.00    -0.324 N 
HETATM    3  C   UNL     1      -1.884   0.609   1.102  1.00  0.00     0.140 C 
HETATM    4  N   UNL     1      -3.329  -1.131   1.245  1.00  0.00    -0.346 N 
ATOM      5  HN  UNL     1      -3.732  -2.067   1.200  1.00  0.00     0.167 HD
HETATM    6  C   UNL     1      -0.881  -1.501   0.506  1.00  0.00     0.135 C 
HETATM    7  C   UNL     1      -3.934  -0.023   1.610  1.00  0.00     0.185 C 
HETATM    8  N   UNL     1      -0.803   1.357   0.840  1.00  0.00    -0.336 N 
ATOM      9  HN  UNL     1      -0.735   2.360   1.012  1.00  0.00     0.168 HD
HETATM   10  N   UNL     1       0.200  -0.739   0.152  1.00  0.00    -0.337 N 
ATOM     11  HN  UNL     1       1.028  -1.186  -0.241  1.00  0.00     0.168 HD
HETATM   12  C   UNL     1       0.178   0.601   0.320  1.00  0.00     0.183 C 
ENDROOT
BRANCH   6  13
HETATM   13  N   UNL     1      -0.790  -2.909   0.477  1.00  0.00    -0.363 N 
BRANCH  13  14
HETATM   14  C   UNL     1       0.406  -3.518  -0.142  1.00  0.00     0.129 C 
BRANCH  14  15
HETATM   15  C   UNL     1       1.647  -3.817   0.754  1.00  0.00     0.004 C 
HETATM   16  C   UNL     1       1.505  -4.935   1.809  1.00  0.00     0.006 C 
HETATM   17  C   UNL     1       0.924  -4.472   3.141  1.00  0.00     0.000 C 
HETATM   18  C   UNL     1       1.668  -3.266   3.704  1.00  0.00     0.000 C 
HETATM   19  C   UNL     1       1.774  -2.139   2.688  1.00  0.00     0.000 C 
HETATM   20  C   UNL     1       2.367  -2.613   1.365  1.00  0.00     0.006 C 
ENDBRANCH  14  15
ENDBRANCH  13  14
BRANCH  13  21
HETATM   21  C   UNL     1      -2.068  -3.608   0.197  1.00  0.00     0.150 C 
BRANCH  21  22
HETATM   22  C   UNL     1      -2.699  -3.252  -1.170  1.00  0.00     0.183 C 
BRANCH  22  23
HETATM   23  O   UNL     1      -1.911  -3.733  -2.263  1.00  0.00    -0.399 OA
HETATM   24  H   UNL     1      -2.267  -3.328  -3.069  1.00  0.00     0.209 HD
ENDBRANCH  22  23
ENDBRANCH  21  22
ENDBRANCH  13  21
ENDBRANCH   6  13
BRANCH   2  25
HETATM   25  C   UNL     1      -3.323   2.313   2.284  1.00  0.00     0.171 C 
BRANCH  25  26
HETATM   26  C   UNL     1      -3.071   2.301   3.806  1.00  0.00     0.097 C 
HETATM   27  C   UNL     1      -3.834   1.244   4.588  1.00  0.00     0.068 C 
HETATM   28  C   UNL     1      -3.961   1.846   5.973  1.00  0.00     0.170 C 
HETATM   29  O   UNL     1      -3.900   3.269   5.834  1.00  0.00    -0.388 OA
HETATM   30  C   UNL     1      -3.581   3.584   4.467  1.00  0.00     0.207 C 
BRANCH  26  31
HETATM   31  O   UNL     1      -1.671   2.180   4.093  1.00  0.00    -0.386 OA
HETATM   32  H   UNL     1      -1.284   1.465   3.555  1.00  0.00     0.210 HD
ENDBRANCH  26  31
ENDBRANCH  25  26
ENDBRANCH   2  25
TORSDOF 9
