REMARK  3 active torsions:
REMARK  status: ('A' for Active; 'I' for Inactive)
REMARK    1  A    between atoms: N_7  and  C_8 
REMARK    2  A    between atoms: C_8  and  C_9 
REMARK       I    between atoms: C_9  and  N_11 
REMARK    3  A    between atoms: N_11  and  C_12 
ROOT
HETATM    1  C   UNL     1       5.130  -2.720   0.067  1.00  0.00     0.235 C 
ENDROOT
BRANCH   1   2
HETATM    2  N   UNL     1       6.113  -2.621   1.143  1.00  0.00    -0.301 N 
HETATM    3  C   UNL     1       5.795  -1.952   2.302  1.00  0.00     0.102 C 
HETATM    4  C   UNL     1       6.673  -1.817   3.294  1.00  0.00     0.092 C 
HETATM    5  C   UNL     1       8.039  -2.355   3.133  1.00  0.00     0.252 C 
HETATM    6  N   UNL     1       8.301  -2.985   1.931  1.00  0.00    -0.271 N 
HETATM    7  O   UNL     1       8.843  -2.205   4.049  1.00  0.00    -0.268 OA
HETATM    8  C   UNL     1       9.649  -3.440   1.661  1.00  0.00     0.164 C 
HETATM    9  C   UNL     1       7.346  -3.231   0.949  1.00  0.00     0.331 C 
HETATM   10  O   UNL     1       7.570  -3.932  -0.041  1.00  0.00    -0.246 OA
ENDBRANCH   1   2
BRANCH   1  11
HETATM   11  C   UNL     1       4.200  -3.912   0.266  1.00  0.00     0.236 C 
HETATM   12  O   UNL     1       3.231  -3.841   1.021  1.00  0.00    -0.272 OA
HETATM   13  N   UNL     1       4.544  -5.064  -0.427  1.00  0.00    -0.355 N 
HETATM   14  H   UNL     1       5.507  -5.148  -0.747  1.00  0.00     0.162 HD
BRANCH  13  15
HETATM   15  C   UNL     1       3.729  -6.268  -0.289  1.00  0.00     0.084 C 
HETATM   16  C   UNL     1       4.181  -7.118   0.907  1.00  0.00     0.025 C 
HETATM   17  C   UNL     1       5.307  -8.093   0.579  1.00  0.00     0.002 C 
HETATM   18  C   UNL     1       4.942  -8.962  -0.619  1.00  0.00     0.000 C 
HETATM   19  C   UNL     1       4.708  -8.089  -1.845  1.00  0.00     0.002 C 
HETATM   20  C   UNL     1       3.612  -7.056  -1.604  1.00  0.00     0.025 C 
ENDBRANCH  13  15
ENDBRANCH   1  11
TORSDOF 3
