REMARK  5 active torsions:
REMARK  status: ('A' for Active; 'I' for Inactive)
REMARK    1  A    between atoms: C_2  and  N_3 
REMARK       I    between atoms: N_3  and  C_4 
REMARK       I    between atoms: C_4  and  N_9 
REMARK    2  A    between atoms: N_5  and  C_7 
REMARK    3  A    between atoms: N_9  and  C_10 
REMARK    4  A    between atoms: C_10  and  C_11 
REMARK    5  A    between atoms: C_11  and  C_12 
ROOT
HETATM    1  N   UNL     1       3.093  -1.285   0.741  1.00  0.00    -0.227 N 
HETATM    2  C   UNL     1       4.452  -1.365   0.851  1.00  0.00     0.669 C 
HETATM    3  N   UNL     1       5.314  -0.538   0.380  1.00  0.00    -0.227 N 
ATOM      4  HN  UNL     1       6.308  -0.729   0.507  1.00  0.00     0.177 HD
HETATM    5  N   UNL     1       4.863  -2.472   1.538  1.00  0.00    -0.226 N 
HETATM    6  H   UNL     1       2.750  -0.491   0.217  1.00  0.00     0.177 HD
HETATM    7  H   UNL     1       4.248  -3.263   1.415  1.00  0.00     0.177 HD
ENDROOT
BRANCH   5   8
HETATM    8  C   UNL     1       6.281  -2.810   1.621  1.00  0.00     0.144 C 
BRANCH   8   9
HETATM    9  C   UNL     1       6.472  -4.150   2.326  1.00  0.00     0.085 C 
BRANCH   9  10
HETATM   10  C   UNL     1       7.918  -4.467   2.495  1.00  0.00     0.052 A 
HETATM   11  N   UNL     1       8.632  -4.102   3.540  1.00  0.00    -0.363 N 
HETATM   12  C   UNL     1       9.937  -4.524   3.384  1.00  0.00     0.095 A 
ATOM     13  HN  UNL     1       8.274  -3.585   4.343  1.00  0.00     0.165 HD
HETATM   14  C   UNL     1      10.204  -5.223   2.225  1.00  0.00     0.068 A 
HETATM   15  S   UNL     1       8.774  -5.353   1.292  1.00  0.00    -0.087 SA
ENDBRANCH   9  10
ENDBRANCH   8   9
ENDBRANCH   5   8
BRANCH   1  16
HETATM   16  C   UNL     1       2.144  -1.869   1.673  1.00  0.00     0.133 C 
HETATM   17  C   UNL     1       0.860  -1.061   1.729  1.00  0.00     0.027 C 
ENDBRANCH   1  16
BRANCH   3  18
HETATM   18  C   UNL     1       4.909   0.660  -0.327  1.00  0.00     0.133 C 
HETATM   19  C   UNL     1       6.172   1.424  -0.700  1.00  0.00     0.027 C 
ENDBRANCH   3  18
TORSDOF 5
