REMARK  5 active torsions:
REMARK  status: ('A' for Active; 'I' for Inactive)
REMARK    1  A    between atoms: C_5  and  C_6 
REMARK    2  A    between atoms: C_6  and  C_7 
REMARK    3  A    between atoms: C_7  and  N_8 
REMARK       I    between atoms: N_8  and  C_9 
REMARK       I    between atoms: C_9  and  N_11 
REMARK    4  A    between atoms: N_11  and  C_12 
REMARK    5  A    between atoms: C_12  and  C_13 
ROOT
HETATM    1  N   UNL     1       8.182   1.760  -0.062  1.00  0.00    -0.343 N 
HETATM    2  C   UNL     1       9.396   1.158   0.127  1.00  0.00     0.316 C 
HETATM    3  O   UNL     1       9.550  -0.050   0.237  1.00  0.00    -0.247 OA
HETATM    4  N   UNL     1      10.423   2.063   0.141  1.00  0.00    -0.343 N 
HETATM    5  H   UNL     1       8.084   2.717   0.245  1.00  0.00     0.164 HD
HETATM    6  H   UNL     1      10.221   2.997  -0.185  1.00  0.00     0.164 HD
ENDROOT
BRANCH   1   7
HETATM    7  C   UNL     1       6.962   0.970  -0.133  1.00  0.00     0.130 C 
BRANCH   7   8
HETATM    8  C   UNL     1       6.410   0.561   1.235  1.00  0.00     0.077 C 
BRANCH   8   9
HETATM    9  C   UNL     1       5.929   1.725   2.045  1.00  0.00     0.018 A 
HETATM   10  N   UNL     1       4.962   2.562   1.508  1.00  0.00    -0.357 N 
HETATM   11  C   UNL     1       4.653   3.509   2.368  1.00  0.00     0.046 A 
ATOM     12  HN  UNL     1       4.550   2.458   0.581  1.00  0.00     0.166 HD
HETATM   13  C   UNL     1       3.646   4.577   2.121  1.00  0.00     0.076 C 
HETATM   14  S   UNL     1       5.506   3.460   3.858  1.00  0.00    -0.087 SA
HETATM   15  C   UNL     1       6.341   2.065   3.319  1.00  0.00     0.076 A 
ENDBRANCH   8   9
ENDBRANCH   7   8
ENDBRANCH   1   7
BRANCH   4  16
HETATM   16  C   UNL     1      11.808   1.643   0.251  1.00  0.00     0.131 C 
BRANCH  16  17
HETATM   17  C   UNL     1      12.532   1.462  -1.082  1.00  0.00     0.029 C 
HETATM   18  C   UNL     1      12.646   2.712  -1.936  1.00  0.00     0.034 C 
HETATM   19  C   UNL     1      12.709   2.185  -3.360  1.00  0.00     0.168 C 
HETATM   20  O   UNL     1      12.531   0.765  -3.307  1.00  0.00    -0.391 OA
HETATM   21  C   UNL     1      11.925   0.458  -2.043  1.00  0.00     0.173 C 
ENDBRANCH  16  17
ENDBRANCH   4  16
TORSDOF 5
