REMARK  5 active torsions:
REMARK  status: ('A' for Active; 'I' for Inactive)
REMARK    1  A    between atoms: C_8  and  C_9 
REMARK    2  A    between atoms: C_9  and  N_10 
REMARK    3  A    between atoms: N_10  and  C_11 
REMARK    4  A    between atoms: C_11  and  C_12 
REMARK    5  A    between atoms: C_12  and  C_13 
ROOT
HETATM    1  N   UNL     1       0.622  -2.587   0.052  1.00  0.00     0.084 N 
HETATM    2  H   UNL     1       0.994  -3.241   0.733  1.00  0.00     0.315 HD
ENDROOT
BRANCH   1   3
HETATM    3  C   UNL     1       1.643  -2.269  -0.962  1.00  0.00     0.279 C 
BRANCH   3   4
HETATM    4  C   UNL     1       2.864  -1.377  -0.553  1.00  0.00     0.045 C 
HETATM    5  C   UNL     1       3.580  -0.686  -1.780  1.00  0.00    -0.009 C 
HETATM    6  C   UNL     1       2.870  -0.805  -3.141  1.00  0.00     0.011 C 
HETATM    7  C   UNL     1       5.087  -0.931  -1.993  1.00  0.00     0.009 C 
HETATM    8  C   UNL     1       5.843  -1.810  -1.016  1.00  0.00     0.028 C 
HETATM    9  C   UNL     1       5.109  -2.239   0.199  1.00  0.00    -0.024 C 
HETATM   10  C   UNL     1       3.805  -2.069   0.433  1.00  0.00    -0.081 C 
HETATM   11  C   UNL     1       3.270  -2.544   1.759  1.00  0.00     0.043 C 
ENDBRANCH   3   4
ENDBRANCH   1   3
BRANCH   1  12
HETATM   12  C   UNL     1       0.043  -1.428   0.736  1.00  0.00     0.274 C 
BRANCH  12  13
HETATM   13  C   UNL     1      -0.799  -0.556  -0.202  1.00  0.00     0.073 C 
BRANCH  13  14
HETATM   14  C   UNL     1      -1.322   0.656   0.480  1.00  0.00    -0.001 A 
HETATM   15  C   UNL     1      -2.531   0.814   1.206  1.00  0.00     0.037 A 
HETATM   16  C   UNL     1      -3.581  -0.191   1.492  1.00  0.00     0.071 C 
HETATM   17  N   UNL     1      -2.663   2.065   1.665  1.00  0.00    -0.265 N 
HETATM   18  O   UNL     1      -1.530   2.741   1.252  1.00  0.00    -0.242 OA
ATOM     19  HN  UNL     1      -3.440   2.442   2.208  1.00  0.00     0.194 HD
HETATM   20  C   UNL     1      -0.728   1.897   0.554  1.00  0.00     0.081 A 
HETATM   21  C   UNL     1       0.547   2.447   0.053  1.00  0.00     0.079 C 
ENDBRANCH  13  14
ENDBRANCH  12  13
ENDBRANCH   1  12
TORSDOF 5
