REMARK  8 active torsions:
REMARK  status: ('A' for Active; 'I' for Inactive)
REMARK    1  A    between atoms: N_2  and  C_8 
REMARK    2  A    between atoms: C_6  and  N_9 
REMARK    3  A    between atoms: N_9  and  C_19 
REMARK    4  A    between atoms: C_14  and  C_27 
REMARK    5  A    between atoms: C_14  and  C_28 
REMARK       I    between atoms: C_18  and  N_20 
REMARK    6  A    between atoms: N_20  and  C_24 
REMARK    7  A    between atoms: C_27  and  O_30 
REMARK    8  A    between atoms: C_28  and  O_31 
ROOT
HETATM    1  C   UNL     1       0.369  -0.652   0.140  1.00  0.00     0.122 A 
HETATM    2  N   UNL     1       1.599   1.155   0.043  1.00  0.00    -0.322 N 
HETATM    3  C   UNL     1       0.289   0.741   0.071  1.00  0.00     0.140 A 
HETATM    4  N   UNL     1       1.687  -1.067   0.135  1.00  0.00    -0.346 N 
ATOM      5  HN  UNL     1       2.036  -2.025   0.173  1.00  0.00     0.167 HD
HETATM    6  C   UNL     1      -0.840  -1.397   0.151  1.00  0.00     0.135 A 
HETATM    7  C   UNL     1       2.391   0.035   0.071  1.00  0.00     0.185 A 
HETATM    8  N   UNL     1      -0.837   1.474   0.041  1.00  0.00    -0.336 N 
ATOM      9  HN  UNL     1      -0.864   2.493   0.022  1.00  0.00     0.168 HD
HETATM   10  N   UNL     1      -1.993  -0.674   0.076  1.00  0.00    -0.337 N 
ATOM     11  HN  UNL     1      -2.896  -1.147   0.047  1.00  0.00     0.168 HD
HETATM   12  C   UNL     1      -1.927   0.677   0.040  1.00  0.00     0.183 A 
ENDROOT
BRANCH   6  13
HETATM   13  N   UNL     1      -0.878  -2.800   0.181  1.00  0.00    -0.365 N 
HETATM   14  C   UNL     1      -0.058  -3.442   1.200  1.00  0.00     0.151 C 
BRANCH  13  15
HETATM   15  C   UNL     1      -2.070  -3.464  -0.372  1.00  0.00     0.085 C 
HETATM   16  C   UNL     1      -3.184  -3.692   0.658  1.00  0.00     0.027 C 
HETATM   17  C   UNL     1      -3.169  -5.049   1.363  1.00  0.00     0.027 C 
HETATM   18  C   UNL     1      -3.052  -6.218   0.386  1.00  0.00     0.084 C 
HETATM   19  C   UNL     1      -1.789  -6.066  -0.460  1.00  0.00     0.027 C 
HETATM   20  C   UNL     1      -1.695  -4.724  -1.190  1.00  0.00     0.027 C 
BRANCH  18  21
HETATM   21  N   UNL     1      -4.249  -6.347  -0.439  1.00  0.00    -0.357 N 
HETATM   22  C   UNL     1      -5.383  -6.972   0.036  1.00  0.00     0.213 C 
HETATM   23  O   UNL     1      -5.447  -7.538   1.122  1.00  0.00    -0.274 OA
HETATM   24  C   UNL     1      -6.568  -6.906  -0.893  1.00  0.00     0.117 C 
HETATM   25  H   UNL     1      -4.339  -5.758  -1.257  1.00  0.00     0.162 HD
ENDBRANCH  18  21
ENDBRANCH  13  15
ENDBRANCH   6  13
BRANCH   2  26
HETATM   26  C   UNL     1       2.207   2.457   0.027  1.00  0.00     0.094 C 
HETATM   27  C   UNL     1       1.789   3.401   1.195  1.00  0.00     0.039 C 
HETATM   28  C   UNL     1       2.071   4.595   0.213  1.00  0.00     0.006 C 
HETATM   29  C   UNL     1       1.623   3.561  -0.898  1.00  0.00     0.039 C 
BRANCH  28  30
HETATM   30  C   UNL     1       1.153   5.801   0.420  1.00  0.00     0.175 C 
BRANCH  30  31
HETATM   31  O   UNL     1       1.192   6.652  -0.721  1.00  0.00    -0.400 OA
HETATM   32  H   UNL     1       2.131   6.888  -0.872  1.00  0.00     0.209 HD
ENDBRANCH  30  31
ENDBRANCH  28  30
BRANCH  28  33
HETATM   33  C   UNL     1       3.549   5.034   0.222  1.00  0.00     0.175 C 
BRANCH  33  34
HETATM   34  O   UNL     1       3.846   5.762  -0.965  1.00  0.00    -0.400 OA
HETATM   35  H   UNL     1       3.986   5.112  -1.678  1.00  0.00     0.209 HD
ENDBRANCH  33  34
ENDBRANCH  28  33
ENDBRANCH   2  26
TORSDOF 8
