REMARK  2 active torsions:
REMARK  status: ('A' for Active; 'I' for Inactive)
REMARK    1  A    between atoms: C_7  and  N_8 
REMARK       I    between atoms: N_8  and  C_9 
REMARK       I    between atoms: C_9  and  N_11 
REMARK    2  A    between atoms: N_11  and  C_12 
ROOT
HETATM    1  N   UNL     1       2.584  -2.538   0.656  1.00  0.00    -0.338 N 
HETATM    2  C   UNL     1       3.288  -2.590   1.842  1.00  0.00     0.321 C 
HETATM    3  O   UNL     1       4.204  -1.814   2.093  1.00  0.00    -0.247 OA
HETATM    4  N   UNL     1       2.879  -3.620   2.655  1.00  0.00    -0.304 N 
HETATM    5  H   UNL     1       1.634  -2.873   0.683  1.00  0.00     0.164 HD
HETATM    6  H   UNL     1       2.434  -4.410   2.199  1.00  0.00     0.171 HD
ENDROOT
BRANCH   1   7
HETATM    7  C   UNL     1       2.933  -1.517  -0.327  1.00  0.00     0.089 C 
HETATM    8  C   UNL     1       2.396  -0.110   0.037  1.00  0.00     0.004 C 
HETATM    9  C   UNL     1       0.869  -0.048   0.157  1.00  0.00     0.012 C 
HETATM   10  C   UNL     1       2.907   0.910  -0.995  1.00  0.00     0.006 C 
HETATM   11  C   UNL     1       2.577   0.517  -2.435  1.00  0.00     0.001 C 
HETATM   12  C   UNL     1       3.032  -0.903  -2.766  1.00  0.00     0.002 C 
HETATM   13  C   UNL     1       2.537  -1.932  -1.748  1.00  0.00     0.026 C 
ENDBRANCH   1   7
BRANCH   4  14
HETATM   14  C   UNL     1       3.418  -3.909   3.899  1.00  0.00     0.105 A 
HETATM   15  C   UNL     1       4.036  -3.024   4.698  1.00  0.00     0.037 A 
HETATM   16  C   UNL     1       4.643  -3.424   5.941  1.00  0.00     0.020 A 
HETATM   17  C   UNL     1       4.638  -4.709   6.307  1.00  0.00     0.094 A 
HETATM   18  N   UNL     1       4.013  -5.669   5.534  1.00  0.00    -0.327 N 
HETATM   19  C   UNL     1       4.085  -7.064   5.924  1.00  0.00     0.159 C 
HETATM   20  C   UNL     1       3.327  -5.348   4.358  1.00  0.00     0.274 A 
HETATM   21  O   UNL     1       2.704  -6.163   3.674  1.00  0.00    -0.266 OA
ENDBRANCH   4  14
TORSDOF 2
