REMARK  5 active torsions:
REMARK  status: ('A' for Active; 'I' for Inactive)
REMARK    1  A    between atoms: S_2  and  N_5 
REMARK    2  A    between atoms: N_5  and  C_6 
REMARK       I    between atoms: N_9  and  C_12 
REMARK       I    between atoms: C_12  and  N_14 
REMARK    3  A    between atoms: N_14  and  C_15 
REMARK    4  A    between atoms: C_15  and  C_16 
REMARK    5  A    between atoms: C_16  and  C_17 
ROOT
HETATM    1  C   UNL     1       4.821  -0.725   1.580  1.00  0.00     0.074 C 
HETATM    2  C   UNL     1       5.238  -2.141   2.023  1.00  0.00     0.040 C 
HETATM    3  C   UNL     1       4.905  -2.428   3.491  1.00  0.00     0.129 C 
HETATM    4  N   UNL     1       5.408  -1.365   4.360  1.00  0.00    -0.334 N 
HETATM    5  C   UNL     1       4.942  -0.026   3.998  1.00  0.00     0.129 C 
HETATM    6  C   UNL     1       5.364   0.300   2.574  1.00  0.00     0.040 C 
HETATM    7  C   UNL     1       6.115  -1.502   5.541  1.00  0.00     0.318 C 
HETATM    8  O   UNL     1       6.402  -0.546   6.260  1.00  0.00    -0.247 OA
HETATM    9  N   UNL     1       6.485  -2.774   5.887  1.00  0.00    -0.343 N 
HETATM   10  H   UNL     1       6.633  -3.424   5.133  1.00  0.00     0.164 HD
ENDROOT
BRANCH   9  11
HETATM   11  C   UNL     1       7.294  -2.967   7.080  1.00  0.00     0.129 C 
BRANCH  11  12
HETATM   12  C   UNL     1       7.578  -4.437   7.395  1.00  0.00     0.060 C 
BRANCH  12  13
HETATM   13  C   UNL     1       6.383  -5.325   7.620  1.00  0.00    -0.041 A 
HETATM   14  C   UNL     1       5.173  -4.873   8.152  1.00  0.00     0.010 A 
HETATM   15  C   UNL     1       4.127  -5.767   8.360  1.00  0.00     0.018 A 
HETATM   16  C   UNL     1       4.325  -7.097   8.040  1.00  0.00     0.087 A 
HETATM   17  N   UNL     1       5.480  -7.581   7.538  1.00  0.00    -0.375 N 
HETATM   18  C   UNL     1       6.478  -6.689   7.351  1.00  0.00     0.094 A 
ATOM     19  HN  UNL     1       5.594  -8.569   7.311  1.00  0.00     0.164 HD
ENDBRANCH  12  13
ENDBRANCH  11  12
ENDBRANCH   9  11
BRANCH   1  20
HETATM   20  N   UNL     1       3.324  -0.692   1.417  1.00  0.00    -0.215 NA
HETATM   21  H   UNL     1       3.045  -1.431   0.765  1.00  0.00     0.140 HD
BRANCH  20  22
HETATM   22  S   UNL     1       2.653   0.770   0.852  1.00  0.00     0.206 S 
HETATM   23  C   UNL     1       0.926   0.356   0.775  1.00  0.00     0.179 C 
HETATM   24  O   UNL     1       3.144   0.943  -0.496  1.00  0.00    -0.212 OA
HETATM   25  O   UNL     1       2.816   1.782   1.869  1.00  0.00    -0.212 OA
ENDBRANCH  20  22
ENDBRANCH   1  20
TORSDOF 5
