REMARK  6 active torsions:
REMARK  status: ('A' for Active; 'I' for Inactive)
REMARK    1  A    between atoms: C_2  and  O_3 
REMARK    2  A    between atoms: C_2  and  C_9 
REMARK    3  A    between atoms: O_3  and  C_4 
REMARK    4  A    between atoms: C_4  and  C_5 
REMARK       I    between atoms: C_9  and  N_11 
REMARK    5  A    between atoms: N_11  and  C_12 
REMARK    6  A    between atoms: C_15  and  N_19 
ROOT
HETATM    1  C   UNL     1       4.634  -1.914  -2.596  1.00  0.00     0.050 C 
HETATM    2  C   UNL     1       5.281  -1.325  -3.667  1.00  0.00     0.035 C 
HETATM    3  C   UNL     1       5.527  -2.099  -4.801  1.00  0.00     0.051 C 
HETATM    4  C   UNL     1       5.173  -3.449  -4.827  1.00  0.00     0.103 C 
HETATM    5  N   UNL     1       4.683  -4.054  -3.728  1.00  0.00    -0.350 N 
ATOM      6  HN  UNL     1       4.520  -5.061  -3.711  1.00  0.00     0.166 HD
HETATM    7  C   UNL     1       4.414  -3.287  -2.648  1.00  0.00     0.119 C 
ENDROOT
BRANCH   1   8
HETATM    8  N   UNL     1       4.157  -1.100  -1.550  1.00  0.00    -0.324 N 
HETATM    9  C   UNL     1       2.917  -1.344  -0.966  1.00  0.00     0.250 C 
HETATM   10  O   UNL     1       2.178  -2.277  -1.266  1.00  0.00    -0.270 OA
HETATM   11  H   UNL     1       4.509  -0.150  -1.512  1.00  0.00     0.169 HD
BRANCH   9  12
HETATM   12  C   UNL     1       2.558  -0.354   0.155  1.00  0.00     0.209 C 
HETATM   13  C   UNL     1       1.101   0.064  -0.030  1.00  0.00     0.050 C 
BRANCH  12  14
HETATM   14  O   UNL     1       2.688  -0.925   1.456  1.00  0.00    -0.368 OA
BRANCH  14  15
HETATM   15  C   UNL     1       4.018  -1.379   1.754  1.00  0.00     0.286 C 
BRANCH  15  16
HETATM   16  C   UNL     1       4.137  -2.075   3.114  1.00  0.00     0.408 C 
HETATM   17  F   UNL     1       2.953  -2.219   3.743  1.00  0.00    -0.169 F 
HETATM   18  F   UNL     1       4.678  -3.310   2.969  1.00  0.00    -0.169 F 
HETATM   19  F   UNL     1       4.958  -1.377   3.934  1.00  0.00    -0.169 F 
ENDBRANCH  15  16
ENDBRANCH  14  15
ENDBRANCH  12  14
ENDBRANCH   9  12
ENDBRANCH   1   8
BRANCH   4  20
HETATM   20  N   UNL     1       5.210  -4.155  -6.010  1.00  0.00    -0.363 N 
HETATM   21  C   UNL     1       4.321  -5.312  -6.176  1.00  0.00     0.150 C 
HETATM   22  C   UNL     1       5.114  -6.619  -6.285  1.00  0.00     0.187 C 
HETATM   23  O   UNL     1       6.143  -6.527  -7.287  1.00  0.00    -0.388 OA
HETATM   24  C   UNL     1       7.068  -5.485  -6.938  1.00  0.00     0.187 C 
HETATM   25  C   UNL     1       6.384  -4.112  -6.886  1.00  0.00     0.150 C 
ENDBRANCH   4  20
TORSDOF 6
