REMARK  5 active torsions:
REMARK  status: ('A' for Active; 'I' for Inactive)
REMARK    1  A    between atoms: C_2  and  C_3 
REMARK       I    between atoms: C_2  and  N_13 
REMARK    2  A    between atoms: C_3  and  N_4 
REMARK    3  A    between atoms: N_13  and  C_14 
REMARK    4  A    between atoms: C_14  and  C_15 
REMARK    5  A    between atoms: C_15  and  C_16 
ROOT
HETATM    1  N   UNL     1       0.167  -0.880  -0.699  1.00  0.00    -0.277 N 
HETATM    2  C   UNL     1       0.185  -0.972  -2.058  1.00  0.00     0.203 A 
HETATM    3  N   UNL     1      -0.564  -1.981  -2.442  1.00  0.00    -0.327 N 
ATOM      4  HN  UNL     1      -0.750  -2.309  -3.390  1.00  0.00     0.169 HD
HETATM    5  C   UNL     1      -1.035  -2.485  -1.256  1.00  0.00     0.204 A 
HETATM    6  C   UNL     1      -1.911  -3.622  -1.189  1.00  0.00     0.138 C 
HETATM    7  N   UNL     1      -2.620  -4.541  -1.130  1.00  0.00    -0.188 NA
HETATM    8  N   UNL     1      -0.623  -1.833  -0.158  1.00  0.00    -0.273 N 
ATOM      9  HN  UNL     1      -0.846  -2.009   0.822  1.00  0.00     0.189 HD
ENDROOT
BRANCH   1  10
HETATM   10  C   UNL     1       0.778   0.130   0.137  1.00  0.00     0.252 C 
BRANCH  10  11
HETATM   11  C   UNL     1       2.282   0.145  -0.004  1.00  0.00     0.237 C 
HETATM   12  O   UNL     1       2.834   0.359  -1.081  1.00  0.00    -0.272 OA
HETATM   13  N   UNL     1       2.981  -0.069   1.167  1.00  0.00    -0.359 N 
HETATM   14  H   UNL     1       2.488  -0.380   1.996  1.00  0.00     0.162 HD
BRANCH  13  15
HETATM   15  C   UNL     1       4.435  -0.102   1.178  1.00  0.00     0.127 C 
BRANCH  15  16
HETATM   16  C   UNL     1       4.985  -0.392   2.577  1.00  0.00     0.053 C 
BRANCH  16  17
HETATM   17  C   UNL     1       6.496  -0.397   2.621  1.00  0.00    -0.082 A 
HETATM   18  C   UNL     1       7.189  -1.529   2.436  1.00  0.00    -0.024 A 
HETATM   19  C   UNL     1       8.674  -1.634   2.463  1.00  0.00     0.027 A 
HETATM   20  C   UNL     1       9.457  -0.348   2.703  1.00  0.00     0.004 A 
HETATM   21  C   UNL     1       8.685   0.948   2.938  1.00  0.00     0.005 A 
HETATM   22  C   UNL     1       7.158   0.916   2.912  1.00  0.00     0.034 A 
ENDBRANCH  16  17
ENDBRANCH  15  16
ENDBRANCH  13  15
ENDBRANCH  10  11
ENDBRANCH   1  10
TORSDOF 5
