REMARK  6 active torsions:
REMARK  status: ('A' for Active; 'I' for Inactive)
REMARK    1  A    between atoms: C_2  and  C_3 
REMARK    2  A    between atoms: C_6  and  C_7 
REMARK    3  A    between atoms: C_7  and  C_8 
REMARK       I    between atoms: C_8  and  N_10 
REMARK    4  A    between atoms: N_10  and  C_11 
REMARK    5  A    between atoms: C_11  and  C_12 
REMARK    6  A    between atoms: C_12  and  C_13 
ROOT
HETATM    1  C   UNL     1       4.428   3.416  -4.663  1.00  0.00     0.223 C 
HETATM    2  O   UNL     1       4.997   2.399  -5.055  1.00  0.00    -0.273 OA
HETATM    3  N   UNL     1       4.284   4.547  -5.454  1.00  0.00    -0.361 N 
HETATM    4  H   UNL     1       3.519   5.165  -5.194  1.00  0.00     0.162 HD
ENDROOT
BRANCH   1   5
HETATM    5  C   UNL     1       3.914   3.520  -3.239  1.00  0.00     0.160 C 
BRANCH   5   6
HETATM    6  C   UNL     1       2.449   3.778  -3.161  1.00  0.00     0.025 A 
HETATM    7  N   UNL     1       1.955   4.990  -3.626  1.00  0.00    -0.356 N 
HETATM    8  C   UNL     1       0.656   5.053  -3.422  1.00  0.00     0.050 A 
ATOM      9  HN  UNL     1       2.516   5.723  -4.061  1.00  0.00     0.166 HD
HETATM   10  S   UNL     1      -0.044   3.681  -2.659  1.00  0.00    -0.087 SA
HETATM   11  C   UNL     1       1.496   2.937  -2.616  1.00  0.00     0.077 A 
BRANCH   8  12
HETATM   12  C   UNL     1      -0.202   6.206  -3.832  1.00  0.00     0.060 C 
HETATM   13  C   UNL     1      -0.728   6.014  -5.246  1.00  0.00     0.012 C 
ENDBRANCH   8  12
ENDBRANCH   5   6
ENDBRANCH   1   5
BRANCH   3  14
HETATM   14  C   UNL     1       4.677   4.427  -6.843  1.00  0.00     0.123 C 
BRANCH  14  15
HETATM   15  C   UNL     1       4.548   5.697  -7.685  1.00  0.00     0.024 C 
BRANCH  15  16
HETATM   16  C   UNL     1       5.162   5.508  -9.101  1.00  0.00    -0.010 C 
HETATM   17  C   UNL     1       5.025   6.772  -9.968  1.00  0.00     0.035 C 
HETATM   18  C   UNL     1       3.611   6.957 -10.531  1.00  0.00     0.272 C 
HETATM   19  N   UNL     1       3.079   5.783 -11.236  1.00  0.00     0.084 N 
HETATM   20  C   UNL     1       3.680   5.608 -12.558  1.00  0.00     0.309 C 
HETATM   21  C   UNL     1       3.185   4.572 -10.415  1.00  0.00     0.272 C 
HETATM   22  C   UNL     1       4.597   4.310  -9.886  1.00  0.00     0.035 C 
ENDBRANCH  15  16
ENDBRANCH  14  15
ENDBRANCH   3  14
TORSDOF 6
