REMARK  4 active torsions:
REMARK  status: ('A' for Active; 'I' for Inactive)
REMARK    1  A    between atoms: N_2  and  C_4 
REMARK    2  A    between atoms: N_9  and  C_10 
REMARK    3  A    between atoms: C_10  and  C_11 
REMARK       I    between atoms: C_11  and  N_13 
REMARK    4  A    between atoms: N_13  and  C_14 
ROOT
HETATM    1  C   UNL     1       6.141   2.296  -2.341  1.00  0.00     0.234 C 
ENDROOT
BRANCH   1   2
HETATM    2  N   UNL     1       5.806   3.047  -3.549  1.00  0.00    -0.314 N 
HETATM    3  C   UNL     1       6.838   3.719  -4.202  1.00  0.00     0.247 A 
HETATM    4  C   UNL     1       6.452   4.472  -5.428  1.00  0.00     0.077 A 
HETATM    5  O   UNL     1       8.009   3.710  -3.834  1.00  0.00    -0.268 OA
HETATM    6  C   UNL     1       5.192   4.427  -5.887  1.00  0.00     0.043 A 
HETATM    7  C   UNL     1       4.189   3.657  -5.182  1.00  0.00     0.118 A 
HETATM    8  C   UNL     1       4.505   3.008  -4.049  1.00  0.00     0.130 A 
BRANCH   7   9
HETATM    9  N   UNL     1       2.811   3.570  -5.675  1.00  0.00    -0.114 N 
HETATM   10  O   UNL     1       2.561   4.142  -6.745  1.00  0.00    -0.532 OA
HETATM   11  O   UNL     1       1.984   2.939  -5.004  1.00  0.00    -0.532 OA
ENDBRANCH   7   9
ENDBRANCH   1   2
BRANCH   1  12
HETATM   12  C   UNL     1       6.460   0.838  -2.675  1.00  0.00     0.236 C 
HETATM   13  O   UNL     1       5.573  -0.008  -2.762  1.00  0.00    -0.272 OA
HETATM   14  N   UNL     1       7.794   0.569  -2.918  1.00  0.00    -0.355 N 
HETATM   15  H   UNL     1       8.406   1.357  -3.120  1.00  0.00     0.162 HD
BRANCH  14  16
HETATM   16  C   UNL     1       8.258  -0.785  -3.239  1.00  0.00     0.084 C 
HETATM   17  C   UNL     1       9.720  -0.959  -2.796  1.00  0.00     0.025 C 
HETATM   18  C   UNL     1      10.129  -2.428  -2.674  1.00  0.00     0.002 C 
HETATM   19  C   UNL     1      10.630  -3.084  -3.958  1.00  0.00     0.000 C 
HETATM   20  C   UNL     1       9.941  -2.685  -5.257  1.00  0.00     0.000 C 
HETATM   21  C   UNL     1       8.430  -2.504  -5.159  1.00  0.00     0.002 C 
HETATM   22  C   UNL     1       8.023  -1.094  -4.723  1.00  0.00     0.025 C 
ENDBRANCH  14  16
ENDBRANCH   1  12
TORSDOF 4
