REMARK  4 active torsions:
REMARK  status: ('A' for Active; 'I' for Inactive)
REMARK    1  A    between atoms: C_2  and  C_3 
REMARK       I    between atoms: C_2  and  N_10 
REMARK    2  A    between atoms: C_3  and  N_4 
REMARK    3  A    between atoms: N_10  and  C_11 
REMARK    4  A    between atoms: N_14  and  C_17 
ROOT
HETATM    1  O   UNL     1       0.929  -0.382   0.183  1.00  0.00    -0.272 OA
HETATM    2  C   UNL     1       2.157  -0.395   0.266  1.00  0.00     0.237 C 
HETATM    3  N   UNL     1       2.893  -0.563  -0.873  1.00  0.00    -0.355 N 
HETATM    4  H   UNL     1       2.321  -0.601  -1.710  1.00  0.00     0.162 HD
ENDROOT
BRANCH   3   5
HETATM    5  C   UNL     1       4.348  -0.559  -1.030  1.00  0.00     0.087 C 
HETATM    6  C   UNL     1       4.878   0.864  -1.225  1.00  0.00     0.055 C 
HETATM    7  C   UNL     1       4.604   1.378  -2.637  1.00  0.00     0.275 C 
HETATM    8  N   UNL     1       5.140   0.493  -3.677  1.00  0.00     0.093 N 
HETATM    9  C   UNL     1       4.570  -0.857  -3.554  1.00  0.00     0.275 C 
HETATM   10  C   UNL     1       4.778  -1.485  -2.173  1.00  0.00     0.055 C 
BRANCH   8  11
HETATM   11  C   UNL     1       6.615   0.494  -3.746  1.00  0.00     0.223 A 
HETATM   12  C   UNL     1       7.350   1.753  -4.116  1.00  0.00     0.038 A 
HETATM   13  C   UNL     1       7.279   0.616  -5.090  1.00  0.00     0.038 A 
ENDBRANCH   8  11
ENDBRANCH   3   5
BRANCH   2  14
HETATM   14  C   UNL     1       2.847  -0.261   1.601  1.00  0.00     0.249 C 
BRANCH  14  15
HETATM   15  N   UNL     1       3.119  -1.556   2.161  1.00  0.00    -0.264 N 
HETATM   16  C   UNL     1       2.245  -2.511   2.570  1.00  0.00     0.213 A 
HETATM   17  N   UNL     1       2.933  -3.537   3.014  1.00  0.00    -0.281 N 
HETATM   18  N   UNL     1       4.258  -3.190   2.880  1.00  0.00    -0.008 NA
ATOM     19  HN  UNL     1       2.562  -4.412   3.383  1.00  0.00     0.184 HD
HETATM   20  N   UNL     1       4.380  -1.972   2.368  1.00  0.00    -0.005 NA
ENDBRANCH  14  15
ENDBRANCH   2  14
TORSDOF 4
