REMARK  2 active torsions:
REMARK  status: ('A' for Active; 'I' for Inactive)
REMARK    1  A    between atoms: C_7  and  N_8 
REMARK       I    between atoms: N_8  and  C_9 
REMARK       I    between atoms: C_9  and  N_11 
REMARK    2  A    between atoms: N_11  and  C_12 
ROOT
HETATM    1  N   UNL     1       7.246   2.056   0.162  1.00  0.00    -0.288 N 
HETATM    2  C   UNL     1       8.507   1.580   0.411  1.00  0.00     0.322 C 
HETATM    3  O   UNL     1       9.234   2.154   1.219  1.00  0.00    -0.247 OA
HETATM    4  N   UNL     1       8.851   0.425  -0.225  1.00  0.00    -0.338 N 
HETATM    5  H   UNL     1       6.927   2.815   0.741  1.00  0.00     0.172 HD
HETATM    6  H   UNL     1       8.279   0.163  -1.022  1.00  0.00     0.164 HD
ENDROOT
BRANCH   1   7
HETATM    7  C   UNL     1       6.397   1.504  -0.756  1.00  0.00     0.169 A 
HETATM    8  N   UNL     1       6.687   0.599  -1.664  1.00  0.00    -0.279 N 
HETATM    9  N   UNL     1       5.584   0.199  -2.370  1.00  0.00    -0.296 N 
ATOM     10  HN  UNL     1       7.627   0.236  -1.824  1.00  0.00     0.189 HD
HETATM   11  C   UNL     1       4.495   0.818  -1.964  1.00  0.00     0.066 A 
ATOM     12  HN  UNL     1       5.604  -0.494  -3.119  1.00  0.00     0.187 HD
HETATM   13  C   UNL     1       3.141   0.533  -2.494  1.00  0.00     0.078 C 
HETATM   14  S   UNL     1       4.767   1.990  -0.727  1.00  0.00    -0.038 SA
ENDBRANCH   1   7
BRANCH   4  15
HETATM   15  C   UNL     1      10.116  -0.283  -0.100  1.00  0.00     0.086 C 
HETATM   16  C   UNL     1      11.063   0.198  -1.208  1.00  0.00     0.025 C 
HETATM   17  C   UNL     1      12.493  -0.292  -1.019  1.00  0.00     0.002 C 
HETATM   18  C   UNL     1      12.793  -1.649  -1.649  1.00  0.00     0.000 C 
HETATM   19  C   UNL     1      11.723  -2.725  -1.503  1.00  0.00     0.000 C 
HETATM   20  C   UNL     1      11.006  -2.728  -0.157  1.00  0.00     0.002 C 
HETATM   21  C   UNL     1       9.805  -1.787  -0.133  1.00  0.00     0.025 C 
ENDBRANCH   4  15
TORSDOF 2
