REMARK  5 active torsions:
REMARK  status: ('A' for Active; 'I' for Inactive)
REMARK    1  A    between atoms: O_2  and  C_3 
REMARK    2  A    between atoms: C_3  and  C_4 
REMARK    3  A    between atoms: C_4  and  O_5 
REMARK    4  A    between atoms: O_5  and  C_6 
REMARK    5  A    between atoms: C_9  and  N_10 
REMARK       I    between atoms: N_10  and  C_11 
REMARK       I    between atoms: C_11  and  N_13 
REMARK       I    between atoms: N_17  and  C_20 
ROOT
HETATM    1  N   UNL     1      10.272  -2.819  -3.142  1.00  0.00    -0.307 N 
HETATM    2  C   UNL     1      10.909  -4.034  -3.277  1.00  0.00     0.323 C 
HETATM    3  O   UNL     1      10.419  -5.095  -2.890  1.00  0.00    -0.247 OA
HETATM    4  N   UNL     1      12.159  -4.021  -3.891  1.00  0.00    -0.332 N 
HETATM    5  C   UNL     1      12.939  -2.846  -4.305  1.00  0.00     0.129 C 
HETATM    6  C   UNL     1      13.996  -2.480  -3.264  1.00  0.00     0.040 C 
HETATM    7  C   UNL     1      15.328  -3.208  -3.489  1.00  0.00     0.127 C 
HETATM    8  N   UNL     1      15.231  -4.638  -3.787  1.00  0.00    -0.351 N 
HETATM    9  C   UNL     1      14.137  -5.389  -3.150  1.00  0.00     0.145 C 
HETATM   10  C   UNL     1      12.858  -5.320  -3.998  1.00  0.00     0.147 C 
HETATM   11  C   UNL     1      16.021  -5.337  -4.690  1.00  0.00     0.215 C 
HETATM   12  O   UNL     1      15.815  -6.528  -4.945  1.00  0.00    -0.274 OA
HETATM   13  C   UNL     1      17.150  -4.639  -5.411  1.00  0.00     0.117 C 
HETATM   14  H   UNL     1      10.621  -2.042  -3.675  1.00  0.00     0.170 HD
ENDROOT
BRANCH   1  15
HETATM   15  C   UNL     1       9.023  -2.608  -2.498  1.00  0.00     0.051 A 
HETATM   16  C   UNL     1       8.403  -3.543  -1.675  1.00  0.00     0.035 A 
HETATM   17  C   UNL     1       7.184  -3.245  -1.069  1.00  0.00     0.058 A 
HETATM   18  C   UNL     1       6.604  -2.014  -1.313  1.00  0.00     0.141 A 
HETATM   19  N   UNL     1       7.163  -1.070  -2.095  1.00  0.00    -0.345 N 
HETATM   20  C   UNL     1       8.358  -1.389  -2.661  1.00  0.00     0.119 A 
ATOM     21  HN  UNL     1       6.715  -0.167  -2.254  1.00  0.00     0.167 HD
BRANCH  18  22
HETATM   22  O   UNL     1       5.446  -1.749  -0.614  1.00  0.00    -0.334 OA
BRANCH  22  23
HETATM   23  C   UNL     1       4.608  -0.774  -1.233  1.00  0.00     0.203 C 
BRANCH  23  24
HETATM   24  C   UNL     1       3.475  -0.450  -0.261  1.00  0.00     0.193 C 
BRANCH  24  25
HETATM   25  O   UNL     1       2.549   0.448  -0.871  1.00  0.00    -0.394 OA
HETATM   26  C   UNL     1       1.488   0.784   0.014  1.00  0.00     0.201 C 
ENDBRANCH  24  25
ENDBRANCH  23  24
ENDBRANCH  22  23
ENDBRANCH  18  22
ENDBRANCH   1  15
TORSDOF 5
