REMARK  5 active torsions:
REMARK  status: ('A' for Active; 'I' for Inactive)
REMARK    1  A    between atoms: N_5  and  C_6 
REMARK    2  A    between atoms: C_6  and  C_7 
REMARK    3  A    between atoms: C_7  and  N_8 
REMARK       I    between atoms: N_8  and  C_9 
REMARK       I    between atoms: C_9  and  N_11 
REMARK    4  A    between atoms: N_11  and  C_12 
REMARK    5  A    between atoms: C_15  and  N_19 
ROOT
HETATM    1  N   UNL     1       6.712  -0.006  -3.898  1.00  0.00    -0.341 N 
HETATM    2  C   UNL     1       7.257  -1.153  -4.428  1.00  0.00     0.320 C 
HETATM    3  O   UNL     1       6.594  -2.034  -4.961  1.00  0.00    -0.247 OA
HETATM    4  N   UNL     1       8.618  -1.204  -4.193  1.00  0.00    -0.308 N 
HETATM    5  H   UNL     1       7.241   0.828  -4.114  1.00  0.00     0.164 HD
HETATM    6  H   UNL     1       8.890  -0.732  -3.342  1.00  0.00     0.170 HD
ENDROOT
BRANCH   1   7
HETATM    7  C   UNL     1       5.265   0.137  -3.834  1.00  0.00     0.154 C 
BRANCH   7   8
HETATM    8  C   UNL     1       4.651  -0.783  -2.755  1.00  0.00     0.292 C 
BRANCH   8   9
HETATM    9  N   UNL     1       3.182  -0.721  -2.650  1.00  0.00     0.090 N 
HETATM   10  C   UNL     1       2.660   0.593  -2.265  1.00  0.00     0.273 C 
HETATM   11  C   UNL     1       2.956   0.973  -0.812  1.00  0.00     0.034 C 
HETATM   12  C   UNL     1       2.467  -0.093   0.178  1.00  0.00    -0.015 C 
HETATM   13  C   UNL     1       0.945  -0.051   0.339  1.00  0.00     0.010 C 
HETATM   14  C   UNL     1       2.947  -1.484  -0.258  1.00  0.00     0.034 C 
HETATM   15  C   UNL     1       2.673  -1.764  -1.742  1.00  0.00     0.273 C 
ENDBRANCH   8   9
ENDBRANCH   7   8
ENDBRANCH   1   7
BRANCH   4  16
HETATM   16  C   UNL     1       9.401  -2.292  -4.607  1.00  0.00     0.051 A 
HETATM   17  C   UNL     1      10.365  -2.795  -3.753  1.00  0.00     0.035 A 
HETATM   18  C   UNL     1      11.114  -3.907  -4.149  1.00  0.00     0.050 A 
HETATM   19  C   UNL     1      10.963  -4.464  -5.423  1.00  0.00     0.102 A 
HETATM   20  N   UNL     1      10.039  -3.952  -6.260  1.00  0.00    -0.350 N 
HETATM   21  C   UNL     1       9.261  -2.914  -5.840  1.00  0.00     0.119 A 
ATOM     22  HN  UNL     1       9.923  -4.337  -7.197  1.00  0.00     0.166 HD
BRANCH  19  23
HETATM   23  N   UNL     1      11.679  -5.593  -5.824  1.00  0.00    -0.376 N 
HETATM   24  C   UNL     1      11.485  -5.996  -7.220  1.00  0.00     0.150 C 
HETATM   25  C   UNL     1      13.043  -5.788  -5.341  1.00  0.00     0.150 C 
ENDBRANCH  19  23
ENDBRANCH   4  16
TORSDOF 5
