REMARK  8 active torsions:
REMARK  status: ('A' for Active; 'I' for Inactive)
REMARK    1  A    between atoms: O_2  and  C_3 
REMARK    2  A    between atoms: C_3  and  C_4 
REMARK    3  A    between atoms: C_4  and  N_5 
REMARK    4  A    between atoms: C_7  and  C_16 
REMARK    5  A    between atoms: C_9  and  C_10 
REMARK    6  A    between atoms: C_10  and  N_11 
REMARK    7  A    between atoms: C_16  and  C_18 
REMARK    8  A    between atoms: C_24  and  O_25 
ROOT
HETATM    1  N   UNL     1       4.806  -1.911  -1.723  1.00  0.00    -0.320 N 
HETATM    2  C   UNL     1       4.514  -3.249  -1.481  1.00  0.00     0.109 A 
HETATM    3  C   UNL     1       4.837  -4.218  -2.356  1.00  0.00     0.032 A 
HETATM    4  C   UNL     1       5.462  -3.837  -3.614  1.00  0.00     0.044 A 
HETATM    5  C   UNL     1       5.727  -2.556  -3.908  1.00  0.00     0.095 A 
HETATM    6  C   UNL     1       5.390  -1.481  -2.925  1.00  0.00     0.267 A 
HETATM    7  O   UNL     1       5.602  -0.304  -3.204  1.00  0.00    -0.266 OA
ENDROOT
BRANCH   3   8
HETATM    8  C   UNL     1       4.491  -5.660  -2.142  1.00  0.00     0.196 C 
HETATM    9  O   UNL     1       4.277  -6.373  -3.127  1.00  0.00    -0.286 OA
BRANCH   8  10
HETATM   10  C   UNL     1       4.360  -6.285  -0.797  1.00  0.00     0.051 A 
HETATM   11  C   UNL     1       3.421  -7.323  -0.685  1.00  0.00     0.060 A 
HETATM   12  C   UNL     1       3.303  -8.036   0.501  1.00  0.00     0.117 A 
HETATM   13  F   UNL     1       2.411  -9.029   0.590  1.00  0.00    -0.206 F 
HETATM   14  C   UNL     1       4.109  -7.742   1.594  1.00  0.00     0.045 A 
HETATM   15  C   UNL     1       5.046  -6.712   1.500  1.00  0.00     0.040 A 
HETATM   16  C   UNL     1       5.174  -5.990   0.306  1.00  0.00     0.080 A 
BRANCH  16  17
HETATM   17  O   UNL     1       6.128  -5.018   0.228  1.00  0.00    -0.360 OA
HETATM   18  H   UNL     1       6.602  -4.945   1.075  1.00  0.00     0.217 HD
ENDBRANCH  16  17
ENDBRANCH   8  10
ENDBRANCH   3   8
BRANCH   1  19
HETATM   19  C   UNL     1       4.410  -0.895  -0.734  1.00  0.00     0.158 C 
BRANCH  19  20
HETATM   20  C   UNL     1       5.027  -1.064   0.662  1.00  0.00     0.187 C 
BRANCH  20  21
HETATM   21  O   UNL     1       6.443  -0.888   0.616  1.00  0.00    -0.394 OA
HETATM   22  C   UNL     1       7.030  -1.015   1.906  1.00  0.00     0.201 C 
ENDBRANCH  20  21
ENDBRANCH  19  20
ENDBRANCH   1  19
BRANCH   5  23
HETATM   23  C   UNL     1       6.420  -2.163  -5.202  1.00  0.00    -0.031 C 
BRANCH  23  24
HETATM   24  N   UNL     1       6.996  -1.838  -6.276  1.00  0.00    -0.365 N 
ATOM     25  HN2 UNL     1       6.563  -2.150  -5.406  1.00  0.00     0.165 HD
ATOM     26  HN1 UNL     1       7.461  -1.574  -7.145  1.00  0.00     0.165 HD
ENDBRANCH  23  24
ENDBRANCH   5  23
TORSDOF 8
