REMARK  3 active torsions:
REMARK  status: ('A' for Active; 'I' for Inactive)
REMARK    1  A    between atoms: C_8  and  N_9 
REMARK       I    between atoms: N_9  and  C_10 
REMARK       I    between atoms: C_10  and  N_12 
REMARK    2  A    between atoms: N_12  and  C_13 
REMARK    3  A    between atoms: N_16  and  C_19 
ROOT
HETATM    1  N   UNL     1       2.671  -2.763   0.791  1.00  0.00    -0.307 N 
HETATM    2  C   UNL     1       1.291  -2.780   0.825  1.00  0.00     0.321 C 
HETATM    3  O   UNL     1       0.586  -2.010   1.469  1.00  0.00    -0.247 OA
HETATM    4  N   UNL     1       0.735  -3.796   0.063  1.00  0.00    -0.338 N 
HETATM    5  H   UNL     1       3.119  -3.626   0.527  1.00  0.00     0.170 HD
HETATM    6  H   UNL     1       1.273  -4.103  -0.735  1.00  0.00     0.164 HD
ENDROOT
BRANCH   4   7
HETATM    7  C   UNL     1      -0.734  -3.869  -0.038  1.00  0.00     0.089 C 
HETATM    8  C   UNL     1      -1.246  -5.282  -0.330  1.00  0.00     0.055 C 
HETATM    9  C   UNL     1      -1.176  -5.662  -1.811  1.00  0.00     0.275 C 
HETATM   10  N   UNL     1      -1.760  -4.670  -2.734  1.00  0.00     0.093 N 
HETATM   11  C   UNL     1      -1.143  -3.357  -2.486  1.00  0.00     0.275 C 
HETATM   12  C   UNL     1      -1.295  -2.863  -1.050  1.00  0.00     0.055 C 
BRANCH  10  13
HETATM   13  C   UNL     1      -3.240  -4.673  -2.756  1.00  0.00     0.223 C 
HETATM   14  C   UNL     1      -3.840  -5.967  -3.365  1.00  0.00     0.036 C 
HETATM   15  C   UNL     1      -4.558  -5.555  -4.644  1.00  0.00     0.002 C 
HETATM   16  C   UNL     1      -5.047  -4.154  -4.340  1.00  0.00     0.002 C 
HETATM   17  C   UNL     1      -3.865  -3.540  -3.606  1.00  0.00     0.036 C 
ENDBRANCH  10  13
ENDBRANCH   4   7
BRANCH   1  18
HETATM   18  C   UNL     1       3.470  -1.756   1.408  1.00  0.00     0.057 A 
HETATM   19  C   UNL     1       4.836  -1.963   1.674  1.00  0.00    -0.033 A 
HETATM   20  C   UNL     1       5.572  -3.227   1.329  1.00  0.00     0.050 C 
HETATM   21  C   UNL     1       5.572  -0.929   2.284  1.00  0.00     0.026 A 
HETATM   22  C   UNL     1       4.942   0.259   2.612  1.00  0.00     0.088 A 
HETATM   23  N   UNL     1       3.646   0.498   2.360  1.00  0.00    -0.373 N 
HETATM   24  C   UNL     1       2.949  -0.505   1.767  1.00  0.00     0.117 A 
ATOM     25  HN  UNL     1       3.207   1.387   2.601  1.00  0.00     0.164 HD
ENDBRANCH   1  18
TORSDOF 3
