REMARK  4 active torsions:
REMARK  status: ('A' for Active; 'I' for Inactive)
REMARK    1  A    between atoms: O_2  and  C_3 
REMARK    2  A    between atoms: C_3  and  C_4 
REMARK    3  A    between atoms: C_4  and  N_5 
REMARK    4  A    between atoms: C_6  and  N_18 
ROOT
HETATM    1  N   UNL     1       4.990  -0.358  -2.518  1.00  0.00    -0.172 N 
HETATM    2  C   UNL     1       5.295   0.704  -3.369  1.00  0.00     0.684 A 
HETATM    3  N   UNL     1       5.723   0.243  -4.533  1.00  0.00    -0.174 N 
ATOM      4  HN  UNL     1       6.047   0.792  -5.329  1.00  0.00     0.186 HD
HETATM    5  C   UNL     1       5.642  -1.110  -4.451  1.00  0.00     0.160 A 
HETATM    6  N   UNL     1       5.912  -2.011  -5.464  1.00  0.00    -0.287 N 
HETATM    7  C   UNL     1       6.344  -1.598  -6.782  1.00  0.00     0.163 C 
HETATM    8  C   UNL     1       5.720  -3.367  -5.225  1.00  0.00     0.330 A 
HETATM    9  O   UNL     1       5.902  -4.240  -6.074  1.00  0.00    -0.246 OA
HETATM   10  N   UNL     1       5.274  -3.729  -3.973  1.00  0.00    -0.273 N 
HETATM   11  C   UNL     1       4.963  -2.893  -2.927  1.00  0.00     0.280 A 
HETATM   12  O   UNL     1       4.520  -3.333  -1.871  1.00  0.00    -0.265 OA
HETATM   13  C   UNL     1       5.191  -1.518  -3.231  1.00  0.00     0.164 A 
HETATM   14  H   UNL     1       5.109  -4.711  -3.827  1.00  0.00     0.173 HD
ENDROOT
BRANCH   1  15
HETATM   15  C   UNL     1       4.418  -0.293  -1.191  1.00  0.00     0.174 C 
BRANCH  15  16
HETATM   16  C   UNL     1       3.037   0.346  -1.157  1.00  0.00     0.187 C 
BRANCH  16  17
HETATM   17  O   UNL     1       2.561   0.345   0.191  1.00  0.00    -0.394 OA
HETATM   18  C   UNL     1       1.288   0.972   0.282  1.00  0.00     0.201 C 
ENDBRANCH  16  17
ENDBRANCH  15  16
ENDBRANCH   1  15
BRANCH   2  19
HETATM   19  N   UNL     1       4.977   2.007  -3.098  1.00  0.00    -0.226 N 
HETATM   20  C   UNL     1       4.880   2.894  -4.265  1.00  0.00     0.168 C 
HETATM   21  C   UNL     1       5.523   2.692  -1.928  1.00  0.00     0.168 C 
ENDBRANCH   2  19
TORSDOF 4
