REMARK  4 active torsions:
REMARK  status: ('A' for Active; 'I' for Inactive)
REMARK    1  A    between atoms: C_2  and  N_3 
REMARK       I    between atoms: N_3  and  C_4 
REMARK    2  A    between atoms: C_4  and  C_6 
REMARK    3  A    between atoms: C_9  and  N_10 
REMARK    4  A    between atoms: N_10  and  C_11 
ROOT
HETATM    1  C   UNL     1       4.927  -1.883  -2.415  1.00  0.00     0.116 A 
HETATM    2  C   UNL     1       5.895  -1.625  -3.368  1.00  0.00     0.040 A 
HETATM    3  C   UNL     1       6.324  -2.678  -4.170  1.00  0.00     0.046 A 
HETATM    4  C   UNL     1       5.809  -3.950  -3.959  1.00  0.00     0.095 A 
HETATM    5  N   UNL     1       4.855  -4.149  -3.019  1.00  0.00    -0.289 N 
ATOM      6  HN  UNL     1       4.470  -5.084  -2.885  1.00  0.00     0.188 HD
HETATM    7  N   UNL     1       4.397  -3.113  -2.243  1.00  0.00    -0.294 N 
ATOM      8  HN  UNL     1       3.668  -3.270  -1.547  1.00  0.00     0.187 HD
ENDROOT
BRANCH   4   9
HETATM    9  N   UNL     1       6.329  -5.013  -4.727  1.00  0.00    -0.271 NA
HETATM   10  H   UNL     1       5.963  -4.922  -5.673  1.00  0.00     0.129 HD
BRANCH   9  11
HETATM   11  C   UNL     1       6.075  -6.329  -4.140  1.00  0.00     0.093 C 
HETATM   12  C   UNL     1       6.837  -6.531  -2.817  1.00  0.00     0.054 C 
HETATM   13  C   UNL     1       7.549  -7.864  -3.044  1.00  0.00     0.123 C 
HETATM   14  C   UNL     1       8.770  -7.670  -3.935  1.00  0.00     0.034 C 
HETATM   15  O   UNL     1       6.656  -8.543  -3.959  1.00  0.00    -0.379 OA
HETATM   16  C   UNL     1       8.122  -7.365  -5.287  1.00  0.00     0.036 C 
HETATM   17  C   UNL     1       6.629  -7.501  -4.971  1.00  0.00     0.140 C 
ENDBRANCH   9  11
ENDBRANCH   4   9
BRANCH   1  18
HETATM   18  C   UNL     1       4.421  -0.802  -1.523  1.00  0.00     0.269 C 
HETATM   19  N   UNL     1       3.435  -1.168  -0.633  1.00  0.00    -0.356 N 
HETATM   20  H   UNL     1       3.156  -2.146  -0.609  1.00  0.00     0.162 HD
HETATM   21  O   UNL     1       4.876   0.337  -1.607  1.00  0.00    -0.266 OA
BRANCH  19  22
HETATM   22  C   UNL     1       2.844  -0.229   0.293  1.00  0.00     0.118 C 
HETATM   23  C   UNL     1       3.585  -0.201   1.618  1.00  0.00     0.026 C 
ENDBRANCH  19  22
ENDBRANCH   1  18
TORSDOF 4
