REMARK  2 active torsions:
REMARK  status: ('A' for Active; 'I' for Inactive)
REMARK    1  A    between atoms: C_4  and  N_5 
REMARK       I    between atoms: N_5  and  C_6 
REMARK       I    between atoms: C_6  and  N_8 
REMARK    2  A    between atoms: N_8  and  C_9 
ROOT
HETATM    1  N   UNL     1       6.837   2.148  -2.172  1.00  0.00    -0.293 N 
HETATM    2  C   UNL     1       7.144   3.441  -1.848  1.00  0.00     0.322 C 
HETATM    3  O   UNL     1       7.935   4.075  -2.542  1.00  0.00    -0.247 OA
HETATM    4  N   UNL     1       6.586   3.927  -0.707  1.00  0.00    -0.338 N 
HETATM    5  H   UNL     1       7.326   1.800  -2.983  1.00  0.00     0.172 HD
HETATM    6  H   UNL     1       5.909   3.326  -0.247  1.00  0.00     0.164 HD
ENDROOT
BRANCH   4   7
HETATM    7  C   UNL     1       7.042   5.111  -0.008  1.00  0.00     0.091 C 
HETATM    8  C   UNL     1       6.522   6.388  -0.661  1.00  0.00     0.066 C 
HETATM    9  C   UNL     1       6.972   7.644   0.109  1.00  0.00     0.153 C 
HETATM   10  C   UNL     1       8.457   7.957  -0.148  1.00  0.00     0.048 C 
HETATM   11  C   UNL     1       6.166   8.849  -0.425  1.00  0.00     0.048 C 
HETATM   12  N   UNL     1       6.675   7.544   1.554  1.00  0.00     0.101 N 
HETATM   13  C   UNL     1       7.040   6.292   2.246  1.00  0.00     0.153 C 
HETATM   14  H   UNL     1       5.671   7.691   1.677  1.00  0.00     0.317 HD
HETATM   15  C   UNL     1       8.544   6.209   2.562  1.00  0.00     0.048 C 
HETATM   16  C   UNL     1       6.307   6.307   3.608  1.00  0.00     0.048 C 
HETATM   17  C   UNL     1       6.570   5.064   1.449  1.00  0.00     0.066 C 
ENDBRANCH   4   7
BRANCH   1  18
HETATM   18  C   UNL     1       6.123   1.249  -1.404  1.00  0.00     0.132 A 
HETATM   19  C   UNL     1       6.075  -0.147  -1.627  1.00  0.00     0.084 A 
HETATM   20  C   UNL     1       5.350  -0.637  -0.567  1.00  0.00     0.076 A 
HETATM   21  C   UNL     1       4.972  -1.977  -0.091  1.00  0.00     0.079 C 
HETATM   22  O   UNL     1       4.935   0.396   0.205  1.00  0.00    -0.241 OA
HETATM   23  N   UNL     1       5.413   1.572  -0.315  1.00  0.00    -0.245 N 
ATOM     24  HN  UNL     1       5.258   2.510   0.055  1.00  0.00     0.196 HD
ENDBRANCH   1  18
TORSDOF 2
