REMARK  3 active torsions:
REMARK  status: ('A' for Active; 'I' for Inactive)
REMARK    1  A    between atoms: C_2  and  N_3 
REMARK       I    between atoms: N_3  and  C_4 
REMARK    2  A    between atoms: C_4  and  C_6 
REMARK    3  A    between atoms: C_9  and  N_13 
ROOT
HETATM    1  C   UNL     1       4.869  -1.673   2.562  1.00  0.00     0.047 A 
HETATM    2  C   UNL     1       5.723  -1.105   3.496  1.00  0.00     0.022 A 
HETATM    3  C   UNL     1       6.165  -1.873   4.578  1.00  0.00     0.049 A 
HETATM    4  C   UNL     1       5.775  -3.207   4.716  1.00  0.00     0.103 A 
HETATM    5  N   UNL     1       4.937  -3.754   3.804  1.00  0.00    -0.351 N 
ATOM      6  HN  UNL     1       4.627  -4.721   3.901  1.00  0.00     0.166 HD
HETATM    7  C   UNL     1       4.514  -2.995   2.755  1.00  0.00     0.106 A 
ENDROOT
BRANCH   1   8
HETATM    8  C   UNL     1       4.424  -0.870   1.400  1.00  0.00     0.253 C 
HETATM    9  N   UNL     1       3.198  -1.183   0.849  1.00  0.00    -0.357 N 
HETATM   10  H   UNL     1       2.563  -1.795   1.344  1.00  0.00     0.162 HD
HETATM   11  O   UNL     1       5.135   0.042   0.992  1.00  0.00    -0.268 OA
BRANCH   9  12
HETATM   12  C   UNL     1       2.667  -0.429  -0.271  1.00  0.00     0.118 C 
HETATM   13  C   UNL     1       1.903   0.802   0.184  1.00  0.00     0.026 C 
ENDBRANCH   9  12
ENDBRANCH   1   8
BRANCH   4  14
HETATM   14  N   UNL     1       6.191  -3.968   5.786  1.00  0.00    -0.363 N 
HETATM   15  C   UNL     1       7.496  -3.788   6.434  1.00  0.00     0.150 C 
HETATM   16  C   UNL     1       8.370  -5.042   6.263  1.00  0.00     0.187 C 
HETATM   17  O   UNL     1       7.693  -6.229   6.702  1.00  0.00    -0.388 OA
HETATM   18  C   UNL     1       6.498  -6.422   5.926  1.00  0.00     0.187 C 
HETATM   19  C   UNL     1       5.527  -5.244   6.088  1.00  0.00     0.150 C 
ENDBRANCH   4  14
TORSDOF 3
