REMARK  5 active torsions:
REMARK  status: ('A' for Active; 'I' for Inactive)
REMARK    1  A    between atoms: C_2  and  N_3 
REMARK    2  A    between atoms: C_2  and  C_12 
REMARK    3  A    between atoms: N_3  and  C_4 
REMARK    4  A    between atoms: C_4  and  C_5 
REMARK    5  A    between atoms: C_5  and  N_6 
REMARK       I    between atoms: C_12  and  N_14 
ROOT
HETATM    1  C   UNL     1       0.956  -0.121  -0.172  1.00  0.00     0.053 C 
HETATM    2  C   UNL     1       2.480  -0.167  -0.044  1.00  0.00     0.307 C 
ENDROOT
BRANCH   2   3
HETATM    3  N   UNL     1       2.901  -1.292   0.827  1.00  0.00     0.098 N 
HETATM    4  H   UNL     1       3.917  -1.389   0.741  1.00  0.00     0.317 HD
BRANCH   3   5
HETATM    5  C   UNL     1       2.517  -1.075   2.227  1.00  0.00     0.292 C 
BRANCH   5   6
HETATM    6  C   UNL     1       3.044  -2.187   3.136  1.00  0.00     0.178 C 
BRANCH   6   7
HETATM    7  N   UNL     1       2.552  -2.033   4.492  1.00  0.00    -0.302 N 
HETATM    8  C   UNL     1       1.742  -2.897   5.173  1.00  0.00     0.111 A 
HETATM    9  C   UNL     1       1.528  -2.326   6.405  1.00  0.00     0.037 A 
HETATM   10  C   UNL     1       2.247  -1.119   6.369  1.00  0.00     0.108 A 
HETATM   11  N   UNL     1       2.878  -0.937   5.206  1.00  0.00    -0.310 N 
ATOM     12  HN  UNL     1       3.467  -0.154   4.924  1.00  0.00     0.186 HD
ENDBRANCH   6   7
ENDBRANCH   5   6
ENDBRANCH   3   5
ENDBRANCH   2   3
BRANCH   2  13
HETATM   13  C   UNL     1       3.114  -0.314  -1.457  1.00  0.00     0.252 C 
HETATM   14  O   UNL     1       3.705  -1.342  -1.794  1.00  0.00    -0.271 OA
HETATM   15  N   UNL     1       2.974   0.770  -2.328  1.00  0.00    -0.350 N 
HETATM   16  C   UNL     1       3.330   0.613  -3.737  1.00  0.00     0.126 C 
HETATM   17  C   UNL     1       2.555   2.118  -1.934  1.00  0.00     0.126 C 
HETATM   18  C   UNL     1       4.375   1.642  -4.168  1.00  0.00     0.024 C 
HETATM   19  C   UNL     1       3.990   3.081  -3.777  1.00  0.00    -0.015 C 
HETATM   20  C   UNL     1       2.841   3.625  -4.630  1.00  0.00     0.010 C 
HETATM   21  C   UNL     1       3.643   3.126  -2.283  1.00  0.00     0.024 C 
ENDBRANCH   2  13
TORSDOF 5
