REMARK  5 active torsions:
REMARK  status: ('A' for Active; 'I' for Inactive)
REMARK    1  A    between atoms: C_2  and  O_3 
REMARK    2  A    between atoms: O_3  and  C_4 
REMARK    3  A    between atoms: C_6  and  N_7 
REMARK       I    between atoms: N_7  and  C_8 
REMARK    4  A    between atoms: C_8  and  C_10 
REMARK    5  A    between atoms: C_10  and  N_12 
ROOT
HETATM    1  N   UNL     1       5.374  -2.417  -4.307  1.00  0.00    -0.354 N 
HETATM    2  C   UNL     1       5.477  -1.835  -5.558  1.00  0.00     0.242 C 
HETATM    3  O   UNL     1       5.107  -0.687  -5.796  1.00  0.00    -0.271 OA
HETATM    4  H   UNL     1       5.606  -3.402  -4.247  1.00  0.00     0.162 HD
ENDROOT
BRANCH   1   5
HETATM    5  C   UNL     1       4.582  -1.821  -3.221  1.00  0.00     0.098 C 
HETATM    6  C   UNL     1       4.984  -0.424  -2.697  1.00  0.00     0.059 C 
HETATM    7  C   UNL     1       4.460  -0.913  -1.307  1.00  0.00     0.133 C 
HETATM    8  C   UNL     1       4.909  -2.350  -1.774  1.00  0.00     0.006 C 
HETATM    9  C   UNL     1       4.120  -3.591  -1.370  1.00  0.00     0.014 C 
HETATM   10  C   UNL     1       6.356  -2.697  -1.397  1.00  0.00     0.014 C 
HETATM   11  C   UNL     1       5.086  -4.763  -1.558  1.00  0.00     0.001 C 
HETATM   12  C   UNL     1       6.481  -4.173  -1.740  1.00  0.00     0.001 C 
BRANCH   7  13
HETATM   13  O   UNL     1       3.038  -0.698  -1.128  1.00  0.00    -0.385 OA
BRANCH  13  14
HETATM   14  C   UNL     1       2.481  -0.978   0.150  1.00  0.00     0.163 C 
HETATM   15  C   UNL     1       0.982  -0.780   0.060  1.00  0.00     0.033 C 
ENDBRANCH  13  14
ENDBRANCH   7  13
ENDBRANCH   1   5
BRANCH   2  16
HETATM   16  C   UNL     1       6.109  -2.732  -6.609  1.00  0.00     0.197 C 
HETATM   17  C   UNL     1       5.623  -2.381  -8.011  1.00  0.00     0.044 C 
BRANCH  16  18
HETATM   18  N   UNL     1       7.552  -2.665  -6.493  1.00  0.00    -0.273 N 
HETATM   19  C   UNL     1       8.364  -1.581  -6.622  1.00  0.00     0.202 A 
HETATM   20  N   UNL     1       9.611  -1.945  -6.436  1.00  0.00    -0.346 N 
HETATM   21  C   UNL     1       9.509  -3.282  -6.185  1.00  0.00     0.198 A 
ATOM     22  HN  UNL     1      10.452  -1.369  -6.471  1.00  0.00     0.167 HD
HETATM   23  N   UNL     1       8.266  -3.773  -6.203  1.00  0.00    -0.292 N 
ATOM     24  HN  UNL     1       7.944  -4.727  -6.041  1.00  0.00     0.188 HD
ENDBRANCH  16  18
ENDBRANCH   2  16
TORSDOF 5
