REMARK  4 active torsions:
REMARK  status: ('A' for Active; 'I' for Inactive)
REMARK    1  A    between atoms: C_2  and  S_3 
REMARK    2  A    between atoms: S_3  and  C_4 
REMARK    3  A    between atoms: C_8  and  N_10 
REMARK       I    between atoms: N_10  and  C_11 
REMARK       I    between atoms: C_11  and  N_13 
REMARK    4  A    between atoms: N_13  and  C_14 
ROOT
HETATM    1  N   UNL     1       5.740  -1.741  -1.315  1.00  0.00    -0.338 N 
HETATM    2  C   UNL     1       5.326  -2.218  -2.544  1.00  0.00     0.321 C 
HETATM    3  O   UNL     1       4.534  -1.594  -3.241  1.00  0.00    -0.247 OA
HETATM    4  N   UNL     1       5.915  -3.405  -2.902  1.00  0.00    -0.306 N 
HETATM    5  H   UNL     1       5.890  -2.449  -0.613  1.00  0.00     0.164 HD
HETATM    6  H   UNL     1       6.526  -3.877  -2.255  1.00  0.00     0.171 HD
ENDROOT
BRANCH   1   7
HETATM    7  C   UNL     1       5.195  -0.452  -0.870  1.00  0.00     0.087 C 
HETATM    8  C   UNL     1       5.750   0.699  -1.730  1.00  0.00     0.025 C 
HETATM    9  C   UNL     1       5.145   2.034  -1.318  1.00  0.00     0.003 C 
HETATM   10  C   UNL     1       5.405   2.320   0.159  1.00  0.00     0.015 C 
HETATM   11  C   UNL     1       4.960   1.182   1.097  1.00  0.00     0.049 C 
HETATM   12  C   UNL     1       5.499  -0.178   0.610  1.00  0.00     0.040 C 
BRANCH  11  13
HETATM   13  S   UNL     1       3.124   1.251   1.276  1.00  0.00    -0.165 SA
BRANCH  13  14
HETATM   14  C   UNL     1       2.784  -0.109   2.442  1.00  0.00     0.070 C 
HETATM   15  C   UNL     1       3.499   0.017   3.775  1.00  0.00     0.016 C 
ENDBRANCH  13  14
ENDBRANCH  11  13
ENDBRANCH   1   7
BRANCH   4  16
HETATM   16  C   UNL     1       5.724  -3.970  -4.156  1.00  0.00     0.070 A 
HETATM   17  C   UNL     1       5.026  -3.477  -5.284  1.00  0.00     0.138 A 
HETATM   18  N   UNL     1       5.065  -4.318  -6.321  1.00  0.00    -0.308 N 
HETATM   19  N   UNL     1       5.782  -5.352  -5.856  1.00  0.00    -0.306 N 
ATOM     20  HN  UNL     1       4.649  -4.202  -7.245  1.00  0.00     0.186 HD
HETATM   21  C   UNL     1       5.997  -6.497  -6.706  1.00  0.00     0.177 C 
HETATM   22  C   UNL     1       6.222  -5.185  -4.570  1.00  0.00     0.140 A 
ENDBRANCH   4  16
TORSDOF 4
