REMARK  6 active torsions:
REMARK  status: ('A' for Active; 'I' for Inactive)
REMARK    1  A    between atoms: CA_2  and  C_3 
REMARK    2  A    between atoms: CA_2  and  N_5 
REMARK    3  A    between atoms: C_3  and  O_4 
REMARK       I    between atoms: N_5  and  C_8 
REMARK       I    between atoms: C_8  and  N_10 
REMARK    4  A    between atoms: N_10  and  C_11 
REMARK    5  A    between atoms: C_11  and  C_12 
REMARK    6  A    between atoms: C_17  and  N_19 
ROOT
HETATM    1  C   UNK A   0       6.463  -3.817  -2.827  1.00  0.00    -0.035 A 
HETATM    2  C   UNK A   0       6.308  -3.780  -4.209  1.00  0.00     0.026 A 
HETATM    3  C   UNK A   0       6.423  -4.969  -4.909  1.00  0.00     0.090 A 
HETATM    4  N   UNK A   0       6.671  -6.175  -4.335  1.00  0.00    -0.352 N 
ATOM      5  HN  UNK A   0       6.751  -7.020  -4.901  1.00  0.00     0.166 HD
HETATM    6  C   UNK A   0       6.808  -6.222  -2.998  1.00  0.00     0.103 A 
HETATM    7  C   UNK A   0       6.739  -5.053  -2.234  1.00  0.00     0.057 A 
ENDROOT
BRANCH   1   8
HETATM    8  C   UNK A   0       6.331  -2.587  -1.979  1.00  0.00     0.163 C 
BRANCH   8   9
HETATM    9  N   UNK A   0       7.589  -1.906  -1.783  1.00  0.00    -0.339 N 
HETATM   10  C   UNK A   0       7.596  -0.751  -1.044  1.00  0.00     0.316 C 
ATOM     11  N   ALA A   1       8.796  -0.101  -1.105  1.00  0.00    -0.337 N 
HETATM   12  O   UNK A   0       6.624  -0.337  -0.425  1.00  0.00    -0.247 OA
ATOM     13  H   ALA A   1       9.613  -0.624  -1.386  1.00  0.00     0.164 HD
HETATM   14  H   UNK A   0       8.296  -2.000  -2.495  1.00  0.00     0.164 HD
BRANCH  11  15
ATOM     15  CA  ALA A   1       9.031   1.135  -0.361  1.00  0.00     0.105 C 
ATOM     16  CB  ALA A   1       9.464   0.820   1.071  1.00  0.00     0.034 C 
BRANCH  15  17
ATOM     17  C   ALA A   1      10.065   2.006  -1.091  1.00  0.00     0.189 C 
BRANCH  17  18
ATOM     18  O   ALA A   1      11.335   1.358  -1.168  1.00  0.00    -0.399 OA
ATOM     19  H   ALA A   1      11.756   1.441  -0.295  1.00  0.00     0.209 HD
ENDBRANCH  17  18
ENDBRANCH  15  17
ENDBRANCH  11  15
ENDBRANCH   8   9
ENDBRANCH   1   8
BRANCH   6  20
HETATM   20  N   UNK A   0       7.052  -7.430  -2.363  1.00  0.00    -0.363 N 
HETATM   21  C   UNK A   0       7.592  -8.562  -3.126  1.00  0.00     0.150 C 
HETATM   22  C   UNK A   0       6.573  -9.698  -3.289  1.00  0.00     0.187 C 
HETATM   23  O   UNK A   0       5.975 -10.067  -2.035  1.00  0.00    -0.388 OA
HETATM   24  C   UNK A   0       5.282  -8.939  -1.486  1.00  0.00     0.187 C 
HETATM   25  C   UNK A   0       6.244  -7.782  -1.184  1.00  0.00     0.150 C 
ENDBRANCH   6  20
TORSDOF 6
