REMARK  5 active torsions:
REMARK  status: ('A' for Active; 'I' for Inactive)
REMARK    1  A    between atoms: C_2  and  S_3 
REMARK    2  A    between atoms: S_3  and  C_4 
REMARK    3  A    between atoms: C_4  and  C_5 
REMARK    4  A    between atoms: C_10  and  N_11 
REMARK       I    between atoms: N_11  and  C_12 
REMARK    5  A    between atoms: C_12  and  C_14 
ROOT
HETATM    1  C   UNL     1       5.351  -1.367  -2.792  1.00  0.00    -0.044 A 
HETATM    2  C   UNL     1       5.727  -0.644  -3.926  1.00  0.00     0.025 A 
HETATM    3  C   UNL     1       6.045  -1.342  -5.074  1.00  0.00     0.090 A 
HETATM    4  N   UNL     1       5.998  -2.684  -5.167  1.00  0.00    -0.352 N 
ATOM      5  HN  UNL     1       6.237  -3.155  -6.040  1.00  0.00     0.166 HD
HETATM    6  C   UNL     1       5.629  -3.389  -4.084  1.00  0.00     0.107 A 
HETATM    7  C   UNL     1       5.315  -2.767  -2.878  1.00  0.00     0.056 A 
ENDROOT
BRANCH   6   8
HETATM    8  N   UNL     1       5.518  -4.781  -4.161  1.00  0.00    -0.311 N 
HETATM    9  C   UNL     1       5.673  -5.524  -5.315  1.00  0.00     0.252 C 
HETATM   10  O   UNL     1       5.983  -5.123  -6.433  1.00  0.00    -0.270 OA
HETATM   11  H   UNL     1       5.245  -5.300  -3.334  1.00  0.00     0.170 HD
BRANCH   9  12
HETATM   12  C   UNL     1       5.379  -7.014  -5.094  1.00  0.00     0.213 C 
HETATM   13  C   UNL     1       4.238  -7.482  -5.989  1.00  0.00     0.044 C 
HETATM   14  C   UNL     1       3.430  -8.430  -5.130  1.00  0.00     0.029 C 
HETATM   15  C   UNL     1       4.238  -8.565  -3.860  1.00  0.00     0.168 C 
HETATM   16  O   UNL     1       4.994  -7.353  -3.753  1.00  0.00    -0.376 OA
ENDBRANCH   9  12
ENDBRANCH   6   8
BRANCH   1  17
HETATM   17  C   UNL     1       4.966  -0.646  -1.528  1.00  0.00     0.112 C 
BRANCH  17  18
HETATM   18  S   UNL     1       6.078  -0.981  -0.130  1.00  0.00    -0.165 SA
BRANCH  18  19
HETATM   19  C   UNL     1       7.610  -0.240  -0.777  1.00  0.00     0.069 C 
HETATM   20  C   UNL     1       8.727  -0.413   0.236  1.00  0.00     0.016 C 
ENDBRANCH  18  19
ENDBRANCH  17  18
ENDBRANCH   1  17
TORSDOF 5
