REMARK  3 active torsions:
REMARK  status: ('A' for Active; 'I' for Inactive)
REMARK    1  A    between atoms: C_2  and  C_3 
REMARK       I    between atoms: C_2  and  N_10 
REMARK    2  A    between atoms: C_3  and  N_4 
REMARK    3  A    between atoms: N_10  and  C_11 
ROOT
HETATM    1  O   UNL     1       2.569  -0.671   2.590  1.00  0.00    -0.272 OA
HETATM    2  C   UNL     1       2.192  -0.750   1.421  1.00  0.00     0.238 C 
HETATM    3  N   UNL     1       3.085  -0.842   0.370  1.00  0.00    -0.347 N 
HETATM    4  H   UNL     1       2.748  -1.166  -0.533  1.00  0.00     0.163 HD
ENDROOT
BRANCH   3   5
HETATM    5  C   UNL     1       4.533  -0.984   0.590  1.00  0.00     0.170 C 
HETATM    6  C   UNL     1       5.155   0.357   0.990  1.00  0.00     0.034 C 
HETATM    7  C   UNL     1       6.616   0.210   1.406  1.00  0.00     0.004 C 
HETATM    8  C   UNL     1       7.597   0.299   0.244  1.00  0.00     0.015 C 
HETATM    9  C   UNL     1       7.129  -0.324  -1.062  1.00  0.00     0.095 C 
HETATM   10  N   UNL     1       6.457  -1.599  -0.934  1.00  0.00    -0.261 NA
HETATM   11  C   UNL     1       5.112  -1.656  -0.675  1.00  0.00     0.220 C 
HETATM   12  H   UNL     1       6.656  -2.222  -1.710  1.00  0.00     0.130 HD
HETATM   13  O   UNL     1       4.405  -2.355  -1.408  1.00  0.00    -0.278 OA
ENDBRANCH   3   5
BRANCH   2  14
HETATM   14  C   UNL     1       0.737  -0.672   1.016  1.00  0.00     0.250 C 
BRANCH  14  15
HETATM   15  N   UNL     1      -0.152  -1.630   1.649  1.00  0.00    -0.295 N 
HETATM   16  C   UNL     1       0.091  -2.527   2.656  1.00  0.00     0.112 A 
HETATM   17  C   UNL     1      -1.099  -3.183   2.890  1.00  0.00     0.037 A 
HETATM   18  C   UNL     1      -2.001  -2.622   1.974  1.00  0.00     0.108 A 
HETATM   19  N   UNL     1      -1.434  -1.683   1.213  1.00  0.00    -0.310 N 
ATOM     20  HN  UNL     1      -1.867  -1.131   0.472  1.00  0.00     0.186 HD
ENDBRANCH  14  15
ENDBRANCH   2  14
TORSDOF 3
