REMARK  6 active torsions:
REMARK  status: ('A' for Active; 'I' for Inactive)
REMARK    1  A    between atoms: C_5  and  N_6 
REMARK       I    between atoms: N_6  and  C_7 
REMARK       I    between atoms: C_7  and  N_9 
REMARK    2  A    between atoms: N_9  and  C_10 
REMARK    3  A    between atoms: C_10  and  C_11 
REMARK    4  A    between atoms: N_14  and  C_15 
REMARK    5  A    between atoms: C_15  and  C_16 
REMARK    6  A    between atoms: C_16  and  N_17 
ROOT
HETATM    1  N   UNL     1       4.111  -7.801   1.867  1.00  0.00    -0.289 N 
HETATM    2  C   UNL     1       4.620  -7.092   0.814  1.00  0.00     0.322 C 
HETATM    3  O   UNL     1       4.237  -7.114  -0.348  1.00  0.00    -0.247 OA
HETATM    4  N   UNL     1       5.649  -6.272   1.231  1.00  0.00    -0.342 N 
HETATM    5  H   UNL     1       4.339  -7.534   2.808  1.00  0.00     0.172 HD
HETATM    6  H   UNL     1       6.088  -6.453   2.119  1.00  0.00     0.164 HD
ENDROOT
BRANCH   4   7
HETATM    7  C   UNL     1       6.310  -5.383   0.307  1.00  0.00     0.129 C 
BRANCH   7   8
HETATM    8  C   UNL     1       7.796  -5.728   0.128  1.00  0.00     0.007 C 
HETATM    9  C   UNL     1       8.423  -4.687  -0.805  1.00  0.00     0.036 C 
HETATM   10  C   UNL     1       7.992  -4.929  -2.252  1.00  0.00     0.274 C 
HETATM   11  N   UNL     1       8.372  -6.271  -2.718  1.00  0.00     0.100 N 
HETATM   12  C   UNL     1       7.748  -7.309  -1.896  1.00  0.00     0.274 C 
HETATM   13  C   UNL     1       8.046  -7.155  -0.403  1.00  0.00     0.036 C 
BRANCH  11  14
HETATM   14  C   UNL     1       9.834  -6.426  -2.844  1.00  0.00     0.375 C 
BRANCH  14  15
HETATM   15  C   UNL     1      10.360  -5.376  -3.808  1.00  0.00    -0.047 C 
BRANCH  15  16
HETATM   16  N   UNL     1      10.795  -4.504  -4.609  1.00  0.00    -0.368 N 
ATOM     17  HN2 UNL     1      10.374  -5.197  -3.990  1.00  0.00     0.165 HD
ATOM     18  HN1 UNL     1      11.148  -3.799  -5.256  1.00  0.00     0.165 HD
ENDBRANCH  15  16
ENDBRANCH  14  15
ENDBRANCH  11  14
ENDBRANCH   7   8
ENDBRANCH   4   7
BRANCH   1  19
HETATM   19  C   UNL     1       3.089  -8.686   1.701  1.00  0.00     0.152 A 
HETATM   20  S   UNL     1       2.382  -9.218   3.160  1.00  0.00    -0.064 SA
HETATM   21  C   UNL     1       1.268 -10.151   2.247  1.00  0.00     0.077 A 
HETATM   22  C   UNL     1       1.539 -10.025   0.898  1.00  0.00     0.014 A 
HETATM   23  C   UNL     1       0.836 -10.680  -0.231  1.00  0.00     0.068 C 
HETATM   24  N   UNL     1       2.590  -9.178   0.599  1.00  0.00    -0.340 N 
ATOM     25  HN  UNL     1       2.925  -8.969  -0.341  1.00  0.00     0.167 HD
ENDBRANCH   1  19
TORSDOF 6
