REMARK  2 active torsions:
REMARK  status: ('A' for Active; 'I' for Inactive)
REMARK       I    between atoms: N_2  and  C_3 
REMARK    1  A    between atoms: C_3  and  C_5 
REMARK    2  A    between atoms: N_7  and  C_11 
ROOT
HETATM    1  C   UNL     1       4.484  -0.219  -1.443  1.00  0.00     0.231 C 
HETATM    2  C   UNL     1       5.149   0.798  -2.393  1.00  0.00     0.183 C 
HETATM    3  N   UNL     1       5.013   0.410  -3.802  1.00  0.00    -0.213 N 
HETATM    4  C   UNL     1       5.267  -0.993  -4.109  1.00  0.00     0.167 C 
HETATM    5  C   UNL     1       4.587  -1.924  -3.097  1.00  0.00     0.189 C 
HETATM    6  O   UNL     1       4.875  -1.574  -1.733  1.00  0.00    -0.373 OA
ENDROOT
BRANCH   3   7
HETATM    7  C   UNL     1       4.122   1.139  -4.563  1.00  0.00     0.680 A 
HETATM    8  N   UNL     1       4.070   2.467  -4.360  1.00  0.00    -0.202 N 
HETATM    9  C   UNL     1       3.234   3.186  -5.125  1.00  0.00     0.108 A 
ATOM     10  HN  UNL     1       4.647   2.914  -3.648  1.00  0.00     0.183 HD
HETATM   11  C   UNL     1       2.443   2.637  -6.100  1.00  0.00     0.042 A 
HETATM   12  C   UNL     1       2.556   1.273  -6.258  1.00  0.00     0.024 A 
HETATM   13  C   UNL     1       1.702   0.547  -7.250  1.00  0.00     0.068 C 
HETATM   14  N   UNL     1       3.396   0.524  -5.511  1.00  0.00    -0.196 N 
ATOM     15  HN  UNL     1       3.477  -0.481  -5.663  1.00  0.00     0.184 HD
ENDBRANCH   3   7
BRANCH   1  16
HETATM   16  C   UNL     1       2.957  -0.038  -1.322  1.00  0.00     0.247 C 
HETATM   17  N   UNL     1       2.352  -1.022  -0.559  1.00  0.00    -0.363 N 
HETATM   18  C   UNL     1       0.918  -1.065  -0.426  1.00  0.00     0.149 C 
HETATM   19  H   UNL     1       2.902  -1.851  -0.355  1.00  0.00     0.162 HD
HETATM   20  O   UNL     1       2.328   0.912  -1.786  1.00  0.00    -0.271 OA
ENDBRANCH   1  16
TORSDOF 2
