REMARK  5 active torsions:
REMARK  status: ('A' for Active; 'I' for Inactive)
REMARK    1  A    between atoms: N_4  and  C_5 
REMARK    2  A    between atoms: C_5  and  C_6 
REMARK    3  A    between atoms: C_6  and  O_7 
REMARK    4  A    between atoms: O_7  and  C_8 
REMARK    5  A    between atoms: C_8  and  C_9 
ROOT
HETATM    1 CL   UNL     1       7.115   2.451   4.392  1.00  0.00    -0.077 Cl
HETATM    2  C   UNL     1       7.362   2.448   2.695  1.00  0.00     0.117 A 
HETATM    3  C   UNL     1       6.350   2.560   1.828  1.00  0.00     0.125 A 
HETATM    4  N   UNL     1       6.540   2.546   0.457  1.00  0.00    -0.306 N 
HETATM    5  C   UNL     1       7.813   2.423  -0.100  1.00  0.00     0.329 A 
HETATM    6  O   UNL     1       8.048   2.334  -1.301  1.00  0.00    -0.246 OA
HETATM    7  N   UNL     1       8.848   2.361   0.800  1.00  0.00    -0.274 N 
HETATM    8  C   UNL     1       8.737   2.283   2.163  1.00  0.00     0.272 A 
HETATM    9  O   UNL     1       9.712   2.070   2.875  1.00  0.00    -0.266 OA
HETATM   10  H   UNL     1       9.766   2.221   0.411  1.00  0.00     0.173 HD
ENDROOT
BRANCH   4  11
HETATM   11  C   UNL     1       5.376   2.562  -0.443  1.00  0.00     0.159 C 
BRANCH  11  12
HETATM   12  C   UNL     1       4.463   3.787  -0.311  1.00  0.00     0.188 C 
BRANCH  12  13
HETATM   13  O   UNL     1       5.185   4.977  -0.622  1.00  0.00    -0.387 OA
BRANCH  13  14
HETATM   14  C   UNL     1       4.354   6.137  -0.541  1.00  0.00     0.199 C 
BRANCH  14  15
HETATM   15  C   UNL     1       5.189   7.378  -0.837  1.00  0.00     0.145 C 
HETATM   16  C   UNL     1       6.334   7.585   0.144  1.00  0.00     0.036 C 
HETATM   17  C   UNL     1       6.453   9.090   0.269  1.00  0.00     0.029 C 
HETATM   18  C   UNL     1       5.336   9.642  -0.594  1.00  0.00     0.168 C 
HETATM   19  O   UNL     1       4.398   8.572  -0.752  1.00  0.00    -0.384 OA
ENDBRANCH  14  15
ENDBRANCH  13  14
ENDBRANCH  12  13
ENDBRANCH  11  12
ENDBRANCH   4  11
TORSDOF 5
