REMARK  3 active torsions:
REMARK  status: ('A' for Active; 'I' for Inactive)
REMARK       I    between atoms: C_2  and  N_3 
REMARK       I    between atoms: C_2  and  N_18 
REMARK    1  A    between atoms: N_3  and  C_4 
REMARK    2  A    between atoms: C_7  and  C_10 
REMARK       I    between atoms: C_10  and  N_12 
REMARK    3  A    between atoms: N_18  and  C_19 
ROOT
HETATM    1  C   UNL     1       2.306  -1.100   2.058  1.00  0.00     0.086 C 
HETATM    2  C   UNL     1       1.999  -2.568   1.760  1.00  0.00     0.026 C 
HETATM    3  C   UNL     1       0.887  -2.714   0.718  1.00  0.00     0.016 C 
HETATM    4  C   UNL     1      -0.406  -1.956   1.071  1.00  0.00     0.078 C 
HETATM    5  C   UNL     1      -0.136  -0.523   1.550  1.00  0.00     0.016 C 
HETATM    6  C   UNL     1       1.025  -0.403   2.536  1.00  0.00     0.026 C 
ENDROOT
BRANCH   1   7
HETATM    7  N   UNL     1       2.923  -0.487   0.879  1.00  0.00    -0.338 N 
HETATM    8  C   UNL     1       3.459   0.785   0.929  1.00  0.00     0.321 C 
HETATM    9  O   UNL     1       3.300   1.534   1.881  1.00  0.00    -0.247 OA
HETATM   10  N   UNL     1       4.152   1.068  -0.230  1.00  0.00    -0.309 N 
HETATM   11  H   UNL     1       4.007   0.433  -1.000  1.00  0.00     0.170 HD
HETATM   12  H   UNL     1       3.461  -1.121   0.308  1.00  0.00     0.164 HD
BRANCH  10  13
HETATM   13  C   UNL     1       4.857   2.258  -0.508  1.00  0.00     0.038 A 
HETATM   14  C   UNL     1       5.185   3.196   0.466  1.00  0.00     0.046 A 
HETATM   15  C   UNL     1       5.855   4.345   0.075  1.00  0.00     0.090 A 
HETATM   16  N   UNL     1       6.216   4.609  -1.196  1.00  0.00    -0.375 N 
HETATM   17  C   UNL     1       5.899   3.681  -2.119  1.00  0.00     0.090 A 
ATOM     18  HN  UNL     1       6.705   5.468  -1.446  1.00  0.00     0.164 HD
HETATM   19  C   UNL     1       5.240   2.498  -1.828  1.00  0.00     0.046 A 
ENDBRANCH  10  13
ENDBRANCH   1   7
BRANCH   4  20
HETATM   20  C   UNL     1      -1.242  -2.768   2.066  1.00  0.00     0.224 C 
HETATM   21  O   UNL     1      -0.695  -3.535   2.860  1.00  0.00    -0.273 OA
HETATM   22  N   UNL     1      -2.632  -2.653   2.012  1.00  0.00    -0.350 N 
HETATM   23  C   UNL     1      -3.416  -3.535   2.888  1.00  0.00     0.136 C 
HETATM   24  C   UNL     1      -3.352  -1.492   1.463  1.00  0.00     0.136 C 
HETATM   25  C   UNL     1      -4.661  -4.110   2.213  1.00  0.00     0.093 C 
HETATM   26  S   UNL     1      -5.801  -2.805   1.657  1.00  0.00    -0.166 SA
HETATM   27  C   UNL     1      -4.606  -1.857   0.668  1.00  0.00     0.093 C 
ENDBRANCH   4  20
TORSDOF 3
