REMARK  5 active torsions:
REMARK  status: ('A' for Active; 'I' for Inactive)
REMARK    1  A    between atoms: C_2  and  N_3 
REMARK    2  A    between atoms: C_2  and  C_22 
REMARK       I    between atoms: N_6  and  C_9 
REMARK       I    between atoms: C_9  and  N_11 
REMARK    3  A    between atoms: N_11  and  C_12 
REMARK    4  A    between atoms: C_12  and  C_13 
REMARK    5  A    between atoms: C_13  and  C_14 
ROOT
HETATM    1  N   UNL     1       3.418  -0.869   0.382  1.00  0.00    -0.398 N 
HETATM    2  C   UNL     1       3.331  -2.287  -0.000  1.00  0.00     0.137 C 
HETATM    3  C   UNL     1       3.003  -3.336   1.117  1.00  0.00     0.147 C 
HETATM    4  N   UNL     1       3.428  -2.920   2.461  1.00  0.00    -0.331 N 
HETATM    5  C   UNL     1       3.085  -1.533   2.756  1.00  0.00     0.147 C 
HETATM    6  C   UNL     1       3.817  -0.627   1.768  1.00  0.00     0.137 C 
HETATM    7  C   UNL     1       4.275  -3.543   3.344  1.00  0.00     0.318 C 
HETATM    8  O   UNL     1       4.628  -3.009   4.395  1.00  0.00    -0.247 OA
HETATM    9  N   UNL     1       4.741  -4.788   3.023  1.00  0.00    -0.343 N 
HETATM   10  H   UNL     1       4.297  -5.324   2.297  1.00  0.00     0.164 HD
ENDROOT
BRANCH   9  11
HETATM   11  C   UNL     1       5.613  -5.461   3.979  1.00  0.00     0.129 C 
BRANCH  11  12
HETATM   12  C   UNL     1       6.146  -6.824   3.534  1.00  0.00     0.060 C 
BRANCH  12  13
HETATM   13  C   UNL     1       6.950  -6.771   2.263  1.00  0.00    -0.041 A 
HETATM   14  C   UNL     1       8.125  -6.024   2.163  1.00  0.00     0.010 A 
HETATM   15  C   UNL     1       8.809  -5.979   0.952  1.00  0.00     0.025 A 
HETATM   16  C   UNL     1       8.304  -6.691  -0.132  1.00  0.00     0.005 A 
HETATM   17  C   UNL     1       8.969  -6.630  -1.472  1.00  0.00     0.068 C 
HETATM   18  N   UNL     1       7.178  -7.442  -0.048  1.00  0.00    -0.369 N 
HETATM   19  C   UNL     1       6.538  -7.469   1.134  1.00  0.00     0.095 A 
ATOM     20  HN  UNL     1       6.830  -7.966  -0.851  1.00  0.00     0.165 HD
ENDBRANCH  12  13
ENDBRANCH  11  12
ENDBRANCH   9  11
BRANCH   1  21
HETATM   21  C   UNL     1       2.504   0.127  -0.223  1.00  0.00     0.183 C 
HETATM   22  C   UNL     1       1.021  -0.233  -0.093  1.00  0.00     0.041 C 
BRANCH  21  23
HETATM   23  C   UNL     1       2.851   0.530  -1.691  1.00  0.00     0.406 C 
HETATM   24  F   UNL     1       1.743   0.808  -2.416  1.00  0.00    -0.169 F 
HETATM   25  F   UNL     1       3.620   1.648  -1.704  1.00  0.00    -0.169 F 
HETATM   26  F   UNL     1       3.529  -0.434  -2.352  1.00  0.00    -0.169 F 
ENDBRANCH  21  23
ENDBRANCH   1  21
TORSDOF 5
