REMARK  4 active torsions:
REMARK  status: ('A' for Active; 'I' for Inactive)
REMARK    1  A    between atoms: C_4  and  C_5 
REMARK    2  A    between atoms: C_5  and  C_6 
REMARK    3  A    between atoms: C_6  and  N_7 
REMARK       I    between atoms: N_7  and  C_8 
REMARK       I    between atoms: C_8  and  N_10 
REMARK    4  A    between atoms: N_10  and  C_11 
ROOT
HETATM    1  N   UNL     1       6.640   3.746  -0.039  1.00  0.00    -0.343 N 
HETATM    2  C   UNL     1       6.355   5.080  -0.196  1.00  0.00     0.316 C 
HETATM    3  O   UNL     1       5.259   5.493  -0.562  1.00  0.00    -0.247 OA
HETATM    4  N   UNL     1       7.406   5.885   0.131  1.00  0.00    -0.336 N 
HETATM    5  H   UNL     1       7.252   3.545   0.740  1.00  0.00     0.164 HD
HETATM    6  H   UNL     1       8.326   5.477   0.032  1.00  0.00     0.164 HD
ENDROOT
BRANCH   1   7
HETATM    7  C   UNL     1       5.512   2.846  -0.235  1.00  0.00     0.129 C 
BRANCH   7   8
HETATM    8  C   UNL     1       5.822   1.367  -0.041  1.00  0.00     0.061 C 
BRANCH   8   9
HETATM    9  C   UNL     1       6.198   1.012   1.352  1.00  0.00    -0.023 A 
HETATM   10  C   UNL     1       5.486   1.212   2.522  1.00  0.00     0.118 A 
HETATM   11  N   UNL     1       6.251   0.698   3.529  1.00  0.00    -0.308 N 
HETATM   12  C   UNL     1       5.929   0.663   4.934  1.00  0.00     0.177 C 
HETATM   13  N   UNL     1       7.414   0.180   3.101  1.00  0.00    -0.310 N 
HETATM   14  C   UNL     1       7.376   0.356   1.782  1.00  0.00     0.115 A 
ATOM     15  HN  UNL     1       8.154  -0.248   3.657  1.00  0.00     0.186 HD
ENDBRANCH   8   9
ENDBRANCH   7   8
ENDBRANCH   1   7
BRANCH   4  16
HETATM   16  C   UNL     1       7.310   7.333   0.088  1.00  0.00     0.121 C 
HETATM   17  C   UNL     1       6.999   7.948  -1.287  1.00  0.00     0.057 C 
HETATM   18  C   UNL     1       6.351   9.306  -0.958  1.00  0.00     0.275 C 
HETATM   19  N   UNL     1       6.356   9.368   0.505  1.00  0.00     0.095 N 
HETATM   20  C   UNL     1       5.363  10.250   1.101  1.00  0.00     0.273 C 
HETATM   21  C   UNL     1       6.208   7.970   0.943  1.00  0.00     0.245 C 
HETATM   22  C   UNL     1       5.482  10.184   2.630  1.00  0.00     0.030 C 
HETATM   23  C   UNL     1       5.356   8.749   3.148  1.00  0.00     0.004 C 
HETATM   24  C   UNL     1       6.367   7.834   2.451  1.00  0.00     0.038 C 
ENDBRANCH   4  16
TORSDOF 4
