REMARK  2 active torsions:
REMARK  status: ('A' for Active; 'I' for Inactive)
REMARK       I    between atoms: C_2  and  N_3 
REMARK       I    between atoms: C_2  and  N_9 
REMARK    1  A    between atoms: N_3  and  C_4 
REMARK    2  A    between atoms: N_9  and  C_10 
ROOT
HETATM    1  O   UNL     1       1.578  -0.135  -1.549  1.00  0.00    -0.247 OA
HETATM    2  C   UNL     1       2.575   0.043  -0.850  1.00  0.00     0.322 C 
HETATM    3  N   UNL     1       2.946   1.262  -0.371  1.00  0.00    -0.338 N 
HETATM    4  N   UNL     1       3.394  -1.011  -0.582  1.00  0.00    -0.288 N 
HETATM    5  H   UNL     1       3.663   1.276   0.349  1.00  0.00     0.164 HD
HETATM    6  H   UNL     1       3.152  -1.880  -1.033  1.00  0.00     0.172 HD
ENDROOT
BRANCH   3   7
HETATM    7  C   UNL     1       2.151   2.455  -0.546  1.00  0.00     0.086 C 
HETATM    8  C   UNL     1       3.007   3.722  -0.562  1.00  0.00     0.025 C 
HETATM    9  C   UNL     1       2.146   4.819   0.065  1.00  0.00     0.002 C 
HETATM   10  C   UNL     1       0.831   4.154   0.460  1.00  0.00     0.002 C 
HETATM   11  C   UNL     1       1.181   2.684   0.608  1.00  0.00     0.025 C 
ENDBRANCH   3   7
BRANCH   4  12
HETATM   12  C   UNL     1       4.486  -0.978   0.233  1.00  0.00     0.168 A 
HETATM   13  N   UNL     1       4.928   0.010   0.978  1.00  0.00    -0.279 N 
HETATM   14  N   UNL     1       6.073  -0.339   1.664  1.00  0.00    -0.303 N 
ATOM     15  HN  UNL     1       4.479   0.924   1.041  1.00  0.00     0.189 HD
HETATM   16  C   UNL     1       6.442  -1.573   1.394  1.00  0.00     0.160 A 
ATOM     17  HN  UNL     1       6.572   0.282   2.301  1.00  0.00     0.186 HD
HETATM   18  S   UNL     1       5.407  -2.409   0.306  1.00  0.00    -0.046 SA
ENDBRANCH   4  12
TORSDOF 2
