REMARK  7 active torsions:
REMARK  status: ('A' for Active; 'I' for Inactive)
REMARK    1  A    between atoms: O_2  and  C_3 
REMARK    2  A    between atoms: C_3  and  C_4 
REMARK    3  A    between atoms: C_4  and  N_5 
REMARK    4  A    between atoms: N_5  and  C_6 
REMARK    5  A    between atoms: N_19  and  C_20 
REMARK    6  A    between atoms: C_20  and  C_21 
REMARK    7  A    between atoms: C_21  and  O_22 
ROOT
HETATM    1  C   UNL     1       6.623  -1.153  -2.883  1.00  0.00     0.162 A 
HETATM    2  N   UNL     1       7.602  -0.294  -3.075  1.00  0.00    -0.316 N 
ATOM      3  HN  UNL     1       7.538   0.724  -3.099  1.00  0.00     0.170 HD
HETATM    4  C   UNL     1       8.719  -1.059  -3.234  1.00  0.00     0.146 A 
HETATM    5  N   UNL     1      10.001  -0.606  -3.452  1.00  0.00    -0.287 N 
HETATM    6  C   UNL     1      10.329   0.803  -3.486  1.00  0.00     0.163 C 
HETATM    7  C   UNL     1      11.036  -1.527  -3.627  1.00  0.00     0.332 A 
HETATM    8  O   UNL     1      12.200  -1.152  -3.799  1.00  0.00    -0.246 OA
HETATM    9  N   UNL     1      10.695  -2.887  -3.615  1.00  0.00    -0.269 N 
HETATM   10  C   UNL     1      11.745  -3.866  -3.820  1.00  0.00     0.164 C 
HETATM   11  C   UNL     1       9.397  -3.390  -3.492  1.00  0.00     0.282 A 
HETATM   12  O   UNL     1       9.124  -4.577  -3.648  1.00  0.00    -0.265 OA
HETATM   13  C   UNL     1       8.428  -2.391  -3.207  1.00  0.00     0.150 A 
HETATM   14  N   UNL     1       7.093  -2.458  -2.892  1.00  0.00    -0.314 N 
ENDROOT
BRANCH   1  15
HETATM   15  N   UNL     1       5.297  -0.903  -2.747  1.00  0.00    -0.262 NA
HETATM   16  H   UNL     1       4.945  -1.036  -1.796  1.00  0.00     0.130 HD
BRANCH  15  17
HETATM   17  C   UNL     1       4.784   0.366  -3.271  1.00  0.00     0.121 C 
BRANCH  17  18
HETATM   18  C   UNL     1       3.257   0.425  -3.092  1.00  0.00     0.181 C 
BRANCH  18  19
HETATM   19  O   UNL     1       2.935   0.472  -1.698  1.00  0.00    -0.395 OA
HETATM   20  C   UNL     1       1.531   0.579  -1.486  1.00  0.00     0.201 C 
ENDBRANCH  18  19
ENDBRANCH  17  18
ENDBRANCH  15  17
ENDBRANCH   1  15
BRANCH  14  21
HETATM   21  C   UNL     1       6.268  -3.649  -2.798  1.00  0.00     0.158 C 
BRANCH  21  22
HETATM   22  C   UNL     1       6.687  -4.688  -1.759  1.00  0.00     0.187 C 
BRANCH  22  23
HETATM   23  O   UNL     1       6.678  -4.157  -0.432  1.00  0.00    -0.394 OA
HETATM   24  C   UNL     1       7.154  -5.133   0.494  1.00  0.00     0.201 C 
ENDBRANCH  22  23
ENDBRANCH  21  22
ENDBRANCH  14  21
TORSDOF 7
