REMARK  5 active torsions:
REMARK  status: ('A' for Active; 'I' for Inactive)
REMARK    1  A    between atoms: O_2  and  C_3 
REMARK    2  A    between atoms: C_9  and  N_10 
REMARK       I    between atoms: N_10  and  C_11 
REMARK    3  A    between atoms: C_11  and  C_13 
REMARK    4  A    between atoms: C_13  and  O_14 
REMARK    5  A    between atoms: O_14  and  C_15 
ROOT
HETATM    1  N   UNL     1       3.513  -1.081   2.065  1.00  0.00    -0.309 N 
HETATM    2  C   UNL     1       3.340  -2.058   1.099  1.00  0.00     0.247 C 
HETATM    3  O   UNL     1       3.410  -1.915  -0.123  1.00  0.00    -0.271 OA
HETATM    4  H   UNL     1       3.455  -1.332   3.041  1.00  0.00     0.170 HD
ENDROOT
BRANCH   1   5
HETATM    5  C   UNL     1       3.695   0.290   1.786  1.00  0.00     0.141 A 
HETATM    6  C   UNL     1       3.937   1.188   2.841  1.00  0.00     0.112 A 
HETATM    7  C   UNL     1       4.024   2.553   2.534  1.00  0.00     0.042 A 
HETATM    8  C   UNL     1       3.937   2.975   1.212  1.00  0.00     0.020 A 
HETATM    9  C   UNL     1       3.750   2.017   0.240  1.00  0.00     0.090 A 
HETATM   10  N   UNL     1       3.621   0.704   0.504  1.00  0.00    -0.350 N 
ATOM     11  HN  UNL     1       3.470   0.034  -0.251  1.00  0.00     0.166 HD
BRANCH   6  12
HETATM   12  O   UNL     1       4.077   0.695   4.116  1.00  0.00    -0.352 OA
HETATM   13  C   UNL     1       4.843   1.524   4.995  1.00  0.00     0.210 C 
ENDBRANCH   6  12
ENDBRANCH   1   5
BRANCH   2  14
HETATM   14  C   UNL     1       3.113  -3.459   1.673  1.00  0.00     0.271 C 
BRANCH  14  15
HETATM   15  O   UNL     1       1.944  -3.518   2.476  1.00  0.00    -0.377 OA
BRANCH  15  16
HETATM   16  C   UNL     1       1.673  -4.811   3.002  1.00  0.00     0.122 C 
HETATM   17  C   UNL     1       1.405  -5.902   1.958  1.00  0.00     0.032 C 
HETATM   18  C   UNL     1       0.377  -6.845   2.586  1.00  0.00     0.002 C 
HETATM   19  C   UNL     1      -0.018  -6.220   3.919  1.00  0.00     0.002 C 
HETATM   20  C   UNL     1       0.362  -4.759   3.778  1.00  0.00     0.032 C 
ENDBRANCH  15  16
ENDBRANCH  14  15
ENDBRANCH   2  14
TORSDOF 5
