REMARK  4 active torsions:
REMARK  status: ('A' for Active; 'I' for Inactive)
REMARK    1  A    between atoms: C_2  and  C_5 
REMARK    2  A    between atoms: C_8  and  N_9 
REMARK    3  A    between atoms: N_9  and  C_10 
REMARK    4  A    between atoms: C_10  and  C_11 
ROOT
HETATM    1  C   UNL     1       2.431   1.587   0.193  1.00  0.00     0.063 A 
HETATM    2  C   UNL     1       3.341   1.704   1.242  1.00  0.00     0.021 A 
HETATM    3  C   UNL     1       3.920   2.943   1.515  1.00  0.00     0.049 A 
HETATM    4  C   UNL     1       3.562   4.056   0.758  1.00  0.00     0.100 A 
HETATM    5  N   UNL     1       2.700   3.951  -0.273  1.00  0.00    -0.352 N 
ATOM      6  HN  UNL     1       2.455   4.765  -0.836  1.00  0.00     0.166 HD
HETATM    7  C   UNL     1       2.168   2.732  -0.541  1.00  0.00     0.106 A 
ENDROOT
BRANCH   4   8
HETATM    8  N   UNL     1       4.054   5.298   1.145  1.00  0.00    -0.374 N 
HETATM    9  H   UNL     1       5.072   5.343   1.141  1.00  0.00     0.161 HD
BRANCH   8  10
HETATM   10  C   UNL     1       3.429   6.502   0.603  1.00  0.00     0.153 C 
BRANCH  10  11
HETATM   11  C   UNL     1       4.301   7.252  -0.408  1.00  0.00     0.139 C 
HETATM   12  C   UNL     1       4.573   6.551  -1.727  1.00  0.00     0.035 C 
HETATM   13  C   UNL     1       5.927   7.086  -2.156  1.00  0.00     0.029 C 
HETATM   14  C   UNL     1       6.404   7.932  -0.991  1.00  0.00     0.168 C 
HETATM   15  O   UNL     1       5.605   7.545   0.132  1.00  0.00    -0.384 OA
ENDBRANCH  10  11
ENDBRANCH   8  10
ENDBRANCH   4   8
BRANCH   1  16
HETATM   16  C   UNL     1       1.728   0.311  -0.142  1.00  0.00     0.418 C 
HETATM   17  F   UNL     1       1.997  -0.703   0.728  1.00  0.00    -0.166 F 
HETATM   18  F   UNL     1       2.058  -0.159  -1.376  1.00  0.00    -0.166 F 
HETATM   19  F   UNL     1       0.373   0.446  -0.145  1.00  0.00    -0.166 F 
ENDBRANCH   1  16
TORSDOF 4
