REMARK  4 active torsions:
REMARK  status: ('A' for Active; 'I' for Inactive)
REMARK    1  A    between atoms: N_5  and  C_6 
REMARK    2  A    between atoms: C_6  and  C_7 
REMARK    3  A    between atoms: C_7  and  O_8 
REMARK    4  A    between atoms: C_7  and  C_9 
ROOT
HETATM    1  C   UNL     1       0.976  -0.113  -0.104  1.00  0.00     0.161 C 
HETATM    2  N   UNL     1       2.407  -0.020  -0.107  1.00  0.00    -0.302 N 
HETATM    3  C   UNL     1       3.154   1.175  -0.121  1.00  0.00     0.329 A 
HETATM    4  O   UNL     1       2.729   2.318  -0.153  1.00  0.00    -0.246 OA
HETATM    5  N   UNL     1       4.512   0.791  -0.068  1.00  0.00    -0.295 N 
HETATM    6  C   UNL     1       4.592  -0.607  -0.060  1.00  0.00     0.066 A 
HETATM    7  C   UNL     1       5.690  -1.440  -0.033  1.00  0.00     0.032 A 
HETATM    8  C   UNL     1       5.447  -2.818  -0.016  1.00  0.00     0.002 A 
HETATM    9  C   UNL     1       4.130  -3.324  -0.024  1.00  0.00     0.002 A 
HETATM   10  C   UNL     1       3.028  -2.463  -0.053  1.00  0.00     0.032 A 
HETATM   11  C   UNL     1       3.288  -1.109  -0.074  1.00  0.00     0.065 A 
ENDROOT
BRANCH   5  12
HETATM   12  C   UNL     1       5.623   1.713  -0.036  1.00  0.00     0.170 C 
BRANCH  12  13
HETATM   13  C   UNL     1       6.206   2.023  -1.432  1.00  0.00     0.169 C 
BRANCH  13  14
HETATM   14  O   UNL     1       5.262   2.670  -2.284  1.00  0.00    -0.389 OA
HETATM   15  H   UNL     1       4.739   3.286  -1.741  1.00  0.00     0.210 HD
ENDBRANCH  13  14
BRANCH  13  16
HETATM   16  C   UNL     1       7.455   2.886  -1.415  1.00  0.00    -0.028 A 
HETATM   17  C   UNL     1       8.403   2.731  -2.441  1.00  0.00     0.010 A 
HETATM   18  C   UNL     1       9.560   3.512  -2.471  1.00  0.00     0.001 A 
HETATM   19  C   UNL     1       9.785   4.468  -1.487  1.00  0.00     0.000 A 
HETATM   20  C   UNL     1       8.845   4.653  -0.476  1.00  0.00     0.001 A 
HETATM   21  C   UNL     1       7.686   3.872  -0.443  1.00  0.00     0.010 A 
ENDBRANCH  13  16
ENDBRANCH  12  13
ENDBRANCH   5  12
TORSDOF 4
