REMARK  4 active torsions:
REMARK  status: ('A' for Active; 'I' for Inactive)
REMARK       I    between atoms: N_2  and  C_3 
REMARK    1  A    between atoms: C_3  and  C_5 
REMARK    2  A    between atoms: C_8  and  N_11 
REMARK       I    between atoms: N_11  and  C_12 
REMARK       I    between atoms: C_12  and  N_14 
REMARK    3  A    between atoms: N_14  and  C_15 
REMARK    4  A    between atoms: C_18  and  O_19 
ROOT
HETATM    1  N   UNL     1       6.966  -2.580  -1.280  1.00  0.00    -0.338 N 
HETATM    2  C   UNL     1       7.568  -2.656  -2.515  1.00  0.00     0.321 C 
HETATM    3  O   UNL     1       6.951  -2.543  -3.565  1.00  0.00    -0.247 OA
HETATM    4  N   UNL     1       8.909  -2.953  -2.404  1.00  0.00    -0.308 N 
HETATM    5  H   UNL     1       7.527  -2.154  -0.555  1.00  0.00     0.164 HD
HETATM    6  H   UNL     1       9.133  -3.543  -1.616  1.00  0.00     0.170 HD
ENDROOT
BRANCH   1   7
HETATM    7  C   UNL     1       5.510  -2.484  -1.180  1.00  0.00     0.086 C 
HETATM    8  C   UNL     1       4.995  -1.065  -1.466  1.00  0.00     0.026 C 
HETATM    9  C   UNL     1       5.243  -0.091  -0.314  1.00  0.00     0.016 C 
HETATM   10  C   UNL     1       4.707  -0.612   1.029  1.00  0.00     0.078 C 
HETATM   11  C   UNL     1       5.285  -2.002   1.321  1.00  0.00     0.016 C 
HETATM   12  C   UNL     1       5.043  -2.997   0.181  1.00  0.00     0.026 C 
BRANCH  10  13
HETATM   13  C   UNL     1       3.175  -0.616   1.122  1.00  0.00     0.221 C 
HETATM   14  N   UNL     1       2.567   0.590   0.871  1.00  0.00    -0.365 N 
HETATM   15  C   UNL     1       1.141   0.738   1.032  1.00  0.00     0.149 C 
HETATM   16  H   UNL     1       3.127   1.420   0.722  1.00  0.00     0.161 HD
HETATM   17  O   UNL     1       2.532  -1.610   1.448  1.00  0.00    -0.273 OA
ENDBRANCH  10  13
ENDBRANCH   1   7
BRANCH   4  18
HETATM   18  C   UNL     1       9.729  -3.061  -3.545  1.00  0.00     0.051 A 
HETATM   19  C   UNL     1      10.679  -4.077  -3.618  1.00  0.00     0.035 A 
HETATM   20  C   UNL     1      11.448  -4.207  -4.775  1.00  0.00     0.058 A 
HETATM   21  C   UNL     1      11.280  -3.279  -5.792  1.00  0.00     0.141 A 
HETATM   22  N   UNL     1      10.398  -2.261  -5.738  1.00  0.00    -0.345 N 
HETATM   23  C   UNL     1       9.629  -2.188  -4.626  1.00  0.00     0.119 A 
ATOM     24  HN  UNL     1      10.314  -1.582  -6.494  1.00  0.00     0.167 HD
BRANCH  21  25
HETATM   25  O   UNL     1      12.068  -3.441  -6.913  1.00  0.00    -0.341 OA
HETATM   26  C   UNL     1      11.916  -2.375  -7.847  1.00  0.00     0.211 C 
ENDBRANCH  21  25
ENDBRANCH   4  18
TORSDOF 4
