REMARK  6 active torsions:
REMARK  status: ('A' for Active; 'I' for Inactive)
REMARK    1  A    between atoms: C_2  and  C_4 
REMARK    2  A    between atoms: C_4  and  N_5 
REMARK    3  A    between atoms: C_9  and  C_10 
REMARK    4  A    between atoms: C_10  and  N_11 
REMARK       I    between atoms: N_11  and  C_12 
REMARK    5  A    between atoms: C_12  and  C_14 
REMARK    6  A    between atoms: C_14  and  N_16 
ROOT
HETATM    1  N   UNL     1       6.616  -4.429  -1.829  1.00  0.00    -0.357 N 
HETATM    2  C   UNL     1       7.251  -4.788  -0.660  1.00  0.00     0.242 C 
HETATM    3  O   UNL     1       6.637  -5.132   0.347  1.00  0.00    -0.271 OA
HETATM    4  H   UNL     1       7.148  -4.124  -2.638  1.00  0.00     0.162 HD
ENDROOT
BRANCH   1   5
HETATM    5  C   UNL     1       5.167  -4.391  -1.954  1.00  0.00     0.156 C 
BRANCH   5   6
HETATM    6  C   UNL     1       4.636  -2.980  -2.245  1.00  0.00     0.167 C 
HETATM    7  O   UNL     1       5.173  -2.526  -3.506  1.00  0.00    -0.381 OA
HETATM    8  C   UNL     1       4.670  -1.219  -3.828  1.00  0.00     0.198 C 
HETATM    9  C   UNL     1       4.961  -0.198  -2.712  1.00  0.00     0.298 C 
HETATM   10  N   UNL     1       4.490  -0.618  -1.372  1.00  0.00     0.093 N 
HETATM   11  C   UNL     1       5.006  -1.984  -1.125  1.00  0.00     0.305 C 
BRANCH  10  12
HETATM   12  C   UNL     1       3.024  -0.511  -1.252  1.00  0.00     0.276 C 
BRANCH  12  13
HETATM   13  C   UNL     1       2.476  -0.871   0.148  1.00  0.00     0.006 C 
HETATM   14  C   UNL     1       3.047   0.046   1.230  1.00  0.00     0.011 C 
HETATM   15  C   UNL     1       0.947  -0.814   0.155  1.00  0.00     0.011 C 
ENDBRANCH  12  13
ENDBRANCH  10  12
ENDBRANCH   5   6
ENDBRANCH   1   5
BRANCH   2  16
HETATM   16  C   UNL     1       8.771  -4.760  -0.723  1.00  0.00     0.196 C 
HETATM   17  C   UNL     1       9.379  -4.461   0.643  1.00  0.00     0.044 C 
BRANCH  16  18
HETATM   18  N   UNL     1       9.265  -6.018  -1.255  1.00  0.00    -0.273 N 
HETATM   19  C   UNL     1       9.032  -7.280  -0.798  1.00  0.00     0.202 A 
HETATM   20  N   UNL     1       9.707  -8.140  -1.525  1.00  0.00    -0.346 N 
HETATM   21  C   UNL     1      10.351  -7.343  -2.427  1.00  0.00     0.198 A 
ATOM     22  HN  UNL     1       9.742  -9.156  -1.437  1.00  0.00     0.167 HD
HETATM   23  N   UNL     1      10.109  -6.034  -2.306  1.00  0.00    -0.292 N 
ATOM     24  HN  UNL     1      10.467  -5.256  -2.860  1.00  0.00     0.188 HD
ENDBRANCH  16  18
ENDBRANCH   2  16
TORSDOF 6
