REMARK  5 active torsions:
REMARK  status: ('A' for Active; 'I' for Inactive)
REMARK    1  A    between atoms: C_3  and  N_4 
REMARK    2  A    between atoms: C_5  and  N_6 
REMARK    3  A    between atoms: N_14  and  C_15 
REMARK    4  A    between atoms: C_15  and  C_16 
REMARK       I    between atoms: C_16  and  N_18 
REMARK    5  A    between atoms: N_18  and  C_19 
ROOT
HETATM    1  C   UNL     1       1.085   0.034   0.072  1.00  0.00     0.162 C 
HETATM    2  N   UNL     1       2.535  -0.090   0.038  1.00  0.00    -0.292 N 
HETATM    3  C   UNL     1       3.147  -1.329   0.033  1.00  0.00     0.116 C 
HETATM    4  C   UNL     1       4.498  -1.413   0.060  1.00  0.00     0.138 C 
HETATM    5  C   UNL     1       5.266  -0.150   0.315  1.00  0.00     0.282 C 
HETATM    6  O   UNL     1       6.403  -0.200   0.782  1.00  0.00    -0.265 OA
HETATM    7  N   UNL     1       4.614   1.022   0.004  1.00  0.00    -0.255 N 
HETATM    8  C   UNL     1       3.241   1.100  -0.110  1.00  0.00     0.333 C 
HETATM    9  O   UNL     1       2.680   2.180  -0.328  1.00  0.00    -0.246 OA
ENDROOT
BRANCH   7  10
HETATM   10  C   UNL     1       5.381   2.260   0.017  1.00  0.00     0.240 C 
BRANCH  10  11
HETATM   11  C   UNL     1       5.817   2.675  -1.389  1.00  0.00     0.236 C 
HETATM   12  O   UNL     1       7.008   2.791  -1.685  1.00  0.00    -0.272 OA
HETATM   13  N   UNL     1       4.795   2.995  -2.261  1.00  0.00    -0.355 N 
HETATM   14  H   UNL     1       3.837   3.001  -1.912  1.00  0.00     0.162 HD
BRANCH  13  15
HETATM   15  C   UNL     1       5.064   3.524  -3.567  1.00  0.00     0.084 A 
HETATM   16  C   UNL     1       3.968   3.810  -4.554  1.00  0.00     0.027 A 
HETATM   17  C   UNL     1       4.900   2.657  -4.784  1.00  0.00     0.027 A 
ENDBRANCH  13  15
ENDBRANCH  10  11
ENDBRANCH   7  10
BRANCH   4  18
HETATM   18  N   UNL     1       5.199  -2.614  -0.188  1.00  0.00    -0.374 N 
HETATM   19  C   UNL     1       6.274  -2.586  -1.201  1.00  0.00     0.123 C 
HETATM   20  C   UNL     1       6.402  -3.980  -1.809  1.00  0.00     0.020 C 
HETATM   21  C   UNL     1       6.668  -5.030  -0.730  1.00  0.00     0.003 C 
HETATM   22  C   UNL     1       5.660  -4.925   0.418  1.00  0.00     0.020 C 
HETATM   23  C   UNL     1       5.550  -3.491   0.943  1.00  0.00     0.123 C 
ENDBRANCH   4  18
BRANCH   3  24
HETATM   24  N   UNL     1       2.418  -2.513  -0.080  1.00  0.00    -0.286 NA
HETATM   25  H   UNL     1       1.687  -2.439  -0.779  1.00  0.00     0.125 HD
HETATM   26  H   UNL     1       3.066  -3.268  -0.321  1.00  0.00     0.125 HD
ENDBRANCH   3  24
TORSDOF 5
