REMARK  7 active torsions:
REMARK  status: ('A' for Active; 'I' for Inactive)
REMARK    1  A    between atoms: C_2  and  C_3 
REMARK    2  A    between atoms: C_7  and  C_8 
REMARK    3  A    between atoms: C_10  and  C_11 
REMARK    4  A    between atoms: C_11  and  C_12 
REMARK       I    between atoms: C_12  and  N_14 
REMARK    5  A    between atoms: N_14  and  C_15 
REMARK    6  A    between atoms: C_15  and  C_16 
REMARK    7  A    between atoms: C_16  and  O_18 
ROOT
HETATM    1  C   UNL     1       3.110  -0.065   1.551  1.00  0.00     0.041 A 
HETATM    2  N   UNL     1       3.290  -1.236   2.177  1.00  0.00    -0.265 N 
ATOM      3  HN  UNL     1       3.123  -2.167   1.794  1.00  0.00     0.194 HD
HETATM    4  O   UNL     1       3.744  -0.932   3.437  1.00  0.00    -0.242 OA
HETATM    5  C   UNL     1       3.832   0.413   3.575  1.00  0.00     0.084 A 
HETATM    6  C   UNL     1       3.413   1.037   2.412  1.00  0.00     0.007 A 
ENDROOT
BRANCH   6   7
HETATM    7  C   UNL     1       3.403   2.513   2.185  1.00  0.00     0.146 C 
BRANCH   7   8
HETATM    8  C   UNL     1       2.429   3.025   1.145  1.00  0.00     0.222 C 
HETATM    9  O   UNL     1       2.743   3.163  -0.037  1.00  0.00    -0.273 OA
HETATM   10  N   UNL     1       1.179   3.370   1.599  1.00  0.00    -0.351 N 
HETATM   11  H   UNL     1       0.892   3.205   2.561  1.00  0.00     0.163 HD
BRANCH  10  12
HETATM   12  C   UNL     1       0.210   3.936   0.677  1.00  0.00     0.232 C 
BRANCH  12  13
HETATM   13  C   UNL     1      -1.111   4.278   1.345  1.00  0.00     0.158 C 
HETATM   14  O   UNL     1      -1.333   4.138   2.541  1.00  0.00    -0.649 OA
BRANCH  13  15
HETATM   15  O   UNL     1      -2.033   4.769   0.484  1.00  0.00    -0.775 OA
HETATM   16  H   UNL     1      -1.728   4.831  -0.443  1.00  0.00     0.167 HD
ENDBRANCH  13  15
ENDBRANCH  12  13
ENDBRANCH  10  12
ENDBRANCH   7   8
ENDBRANCH   6   7
BRANCH   1  17
HETATM   17  C   UNL     1       2.660  -0.101   0.130  1.00  0.00     0.055 C 
HETATM   18  C   UNL     1       1.145  -0.153   0.005  1.00  0.00     0.011 C 
ENDBRANCH   1  17
BRANCH   5  19
HETATM   19  C   UNL     1       4.361   0.885   4.879  1.00  0.00     0.063 C 
HETATM   20  C   UNL     1       3.251   1.068   5.899  1.00  0.00     0.012 C 
ENDBRANCH   5  19
TORSDOF 7
