REMARK  4 active torsions:
REMARK  status: ('A' for Active; 'I' for Inactive)
REMARK       I    between atoms: C_2  and  N_3 
REMARK       I    between atoms: C_2  and  N_12 
REMARK    1  A    between atoms: N_3  and  C_4 
REMARK    2  A    between atoms: C_4  and  C_5 
REMARK    3  A    between atoms: C_5  and  N_6 
REMARK    4  A    between atoms: N_12  and  C_13 
ROOT
HETATM    1  O   UNL     1       2.448   0.559  -3.402  1.00  0.00    -0.247 OA
HETATM    2  C   UNL     1       2.113   0.453  -2.234  1.00  0.00     0.316 C 
HETATM    3  N   UNL     1       0.803   0.413  -1.802  1.00  0.00    -0.342 N 
HETATM    4  N   UNL     1       2.966   0.361  -1.170  1.00  0.00    -0.339 N 
HETATM    5  H   UNL     1       0.669  -0.136  -0.967  1.00  0.00     0.164 HD
HETATM    6  H   UNL     1       2.561   0.537  -0.263  1.00  0.00     0.164 HD
ENDROOT
BRANCH   3   7
HETATM    7  C   UNL     1      -0.278   0.435  -2.778  1.00  0.00     0.144 C 
BRANCH   7   8
HETATM    8  C   UNL     1      -1.648   0.407  -2.107  1.00  0.00     0.149 C 
BRANCH   8   9
HETATM    9  N   UNL     1      -2.736   0.459  -3.058  1.00  0.00    -0.350 N 
HETATM   10  C   UNL     1      -3.336  -0.610  -3.662  1.00  0.00     0.108 A 
HETATM   11  C   UNL     1      -4.332  -0.062  -4.437  1.00  0.00     0.106 A 
HETATM   12  N   UNL     1      -4.353   1.303  -4.310  1.00  0.00    -0.361 N 
HETATM   13  C   UNL     1      -3.381   1.588  -3.472  1.00  0.00     0.182 A 
ATOM     14  HN  UNL     1      -4.987   1.958  -4.768  1.00  0.00     0.166 HD
ENDBRANCH   8   9
ENDBRANCH   7   8
ENDBRANCH   3   7
BRANCH   4  15
HETATM   15  C   UNL     1       4.426   0.394  -1.243  1.00  0.00     0.086 C 
HETATM   16  C   UNL     1       4.958   1.685  -1.879  1.00  0.00     0.025 C 
HETATM   17  C   UNL     1       6.440   2.001  -1.631  1.00  0.00     0.002 C 
HETATM   18  C   UNL     1       6.930   1.749  -0.204  1.00  0.00     0.000 C 
HETATM   19  C   UNL     1       7.695   0.437   0.007  1.00  0.00     0.000 C 
HETATM   20  C   UNL     1       6.953  -0.891  -0.192  1.00  0.00     0.000 C 
HETATM   21  C   UNL     1       6.473  -1.166  -1.620  1.00  0.00     0.002 C 
HETATM   22  C   UNL     1       4.987  -0.886  -1.874  1.00  0.00     0.025 C 
ENDBRANCH   4  15
TORSDOF 4
