REMARK  6 active torsions:
REMARK  status: ('A' for Active; 'I' for Inactive)
REMARK    1  A    between atoms: C_6  and  O_7 
REMARK    2  A    between atoms: O_7  and  C_8 
REMARK    3  A    between atoms: C_8  and  C_9 
REMARK    4  A    between atoms: C_9  and  N_10 
REMARK    5  A    between atoms: C_11  and  C_12 
REMARK    6  A    between atoms: C_12  and  O_13 
ROOT
HETATM    1  N   UNL     1       4.736  -6.167  -0.455  1.00  0.00    -0.331 N 
HETATM    2  C   UNL     1       4.513  -6.935   0.672  1.00  0.00     0.108 A 
HETATM    3  N   UNL     1       3.799  -8.004   0.372  1.00  0.00    -0.342 N 
ATOM      4  HN  UNL     1       3.504  -8.743   1.010  1.00  0.00     0.167 HD
HETATM    5  C   UNL     1       3.535  -7.921  -0.969  1.00  0.00     0.060 A 
HETATM    6  C   UNL     1       2.791  -8.792  -1.782  1.00  0.00     0.032 A 
HETATM    7  C   UNL     1       2.650  -8.500  -3.139  1.00  0.00     0.002 A 
HETATM    8  C   UNL     1       3.245  -7.363  -3.684  1.00  0.00     0.002 A 
HETATM    9  C   UNL     1       3.990  -6.479  -2.887  1.00  0.00     0.032 A 
HETATM   10  C   UNL     1       4.114  -6.783  -1.524  1.00  0.00     0.062 A 
ENDROOT
BRANCH   1  11
HETATM   11  C   UNL     1       5.496  -4.932  -0.509  1.00  0.00     0.157 C 
BRANCH  11  12
HETATM   12  C   UNL     1       4.614  -3.693  -0.355  1.00  0.00     0.196 C 
BRANCH  12  13
HETATM   13  O   UNL     1       5.377  -2.480  -0.414  1.00  0.00    -0.350 OA
BRANCH  13  14
HETATM   14  C   UNL     1       5.469  -1.874  -1.637  1.00  0.00     0.069 A 
HETATM   15  C   UNL     1       5.639  -0.491  -1.631  1.00  0.00     0.037 A 
HETATM   16  C   UNL     1       5.772   0.207  -2.835  1.00  0.00     0.003 A 
HETATM   17  C   UNL     1       5.766  -0.479  -4.050  1.00  0.00     0.007 A 
HETATM   18  C   UNL     1       5.625  -1.868  -4.067  1.00  0.00    -0.059 A 
HETATM   19  C   UNL     1       5.660  -2.657  -5.342  1.00  0.00     0.048 C 
HETATM   20  C   UNL     1       5.463  -2.550  -2.856  1.00  0.00     0.043 A 
ENDBRANCH  13  14
ENDBRANCH  12  13
ENDBRANCH  11  12
ENDBRANCH   1  11
BRANCH   2  21
HETATM   21  C   UNL     1       4.977  -6.585   2.043  1.00  0.00     0.240 C 
BRANCH  21  22
HETATM   22  O   UNL     1       6.398  -6.595   2.055  1.00  0.00    -0.393 OA
HETATM   23  H   UNL     1       6.660  -7.529   1.974  1.00  0.00     0.209 HD
ENDBRANCH  21  22
ENDBRANCH   2  21
TORSDOF 6
