REMARK  5 active torsions:
REMARK  status: ('A' for Active; 'I' for Inactive)
REMARK    1  A    between atoms: C_2  and  N_5 
REMARK    2  A    between atoms: C_8  and  N_9 
REMARK       I    between atoms: N_9  and  C_10 
REMARK       I    between atoms: C_10  and  N_12 
REMARK    3  A    between atoms: N_12  and  C_13 
REMARK    4  A    between atoms: C_18  and  C_19 
REMARK    5  A    between atoms: C_19  and  O_20 
ROOT
HETATM    1  N   UNL     1       2.826  -4.780   1.341  1.00  0.00    -0.294 N 
HETATM    2  C   UNL     1       1.827  -5.311   0.568  1.00  0.00     0.322 C 
HETATM    3  O   UNL     1       0.990  -4.580   0.045  1.00  0.00    -0.247 OA
HETATM    4  N   UNL     1       1.901  -6.656   0.340  1.00  0.00    -0.338 N 
HETATM    5  H   UNL     1       2.842  -3.769   1.383  1.00  0.00     0.172 HD
HETATM    6  H   UNL     1       2.548  -7.148   0.958  1.00  0.00     0.164 HD
ENDROOT
BRANCH   1   7
HETATM    7  C   UNL     1       3.819  -5.468   2.001  1.00  0.00     0.125 A 
HETATM    8  C   UNL     1       4.951  -4.889   2.610  1.00  0.00     0.069 A 
HETATM    9  C   UNL     1       5.679  -5.951   3.100  1.00  0.00     0.115 A 
HETATM   10  N   UNL     1       4.947  -7.075   2.835  1.00  0.00    -0.293 N 
HETATM   11  N   UNL     1       3.833  -6.798   2.127  1.00  0.00    -0.283 N 
ATOM     12  HN  UNL     1       3.148  -7.462   1.765  1.00  0.00     0.189 HD
BRANCH  10  13
HETATM   13  C   UNL     1       5.286  -8.482   3.112  1.00  0.00     0.042 C 
HETATM   14  C   UNL     1       6.251  -8.629   4.301  1.00  0.00     0.039 C 
HETATM   15  C   UNL     1       5.918  -9.090   1.848  1.00  0.00     0.039 C 
HETATM   16  C   UNL     1       4.026  -9.290   3.478  1.00  0.00     0.039 C 
ENDBRANCH  10  13
ENDBRANCH   1   7
BRANCH   4  17
HETATM   17  C   UNL     1       1.019  -7.430  -0.521  1.00  0.00     0.092 C 
HETATM   18  C   UNL     1       0.255  -8.478   0.305  1.00  0.00     0.026 C 
HETATM   19  C   UNL     1       1.133  -9.639   0.763  1.00  0.00     0.002 C 
HETATM   20  C   UNL     1       1.958 -10.261  -0.357  1.00  0.00     0.001 C 
HETATM   21  C   UNL     1       2.725  -9.216  -1.158  1.00  0.00     0.009 C 
HETATM   22  C   UNL     1       1.792  -8.111  -1.677  1.00  0.00     0.032 C 
BRANCH  22  23
HETATM   23  C   UNL     1       2.546  -7.112  -2.566  1.00  0.00     0.170 C 
BRANCH  23  24
HETATM   24  O   UNL     1       3.728  -6.616  -1.953  1.00  0.00    -0.400 OA
HETATM   25  H   UNL     1       3.472  -6.317  -1.060  1.00  0.00     0.209 HD
ENDBRANCH  23  24
ENDBRANCH  22  23
ENDBRANCH   4  17
TORSDOF 5
