REMARK  3 active torsions:
REMARK  status: ('A' for Active; 'I' for Inactive)
REMARK    1  A    between atoms: C_4  and  N_5 
REMARK       I    between atoms: N_5  and  C_6 
REMARK       I    between atoms: C_6  and  N_8 
REMARK    2  A    between atoms: N_8  and  C_9 
REMARK    3  A    between atoms: C_9  and  C_10 
ROOT
HETATM    1  N   UNL     1       5.807   1.680   0.012  1.00  0.00    -0.293 N 
HETATM    2  C   UNL     1       5.710   3.099  -0.042  1.00  0.00     0.321 C 
HETATM    3  O   UNL     1       4.646   3.692  -0.054  1.00  0.00    -0.247 OA
HETATM    4  N   UNL     1       6.939   3.676  -0.098  1.00  0.00    -0.340 N 
HETATM    5  H   UNL     1       6.721   1.262  -0.009  1.00  0.00     0.172 HD
HETATM    6  H   UNL     1       7.788   3.168   0.104  1.00  0.00     0.164 HD
ENDROOT
BRANCH   1   7
HETATM    7  C   UNL     1       4.686   0.848   0.049  1.00  0.00     0.127 A 
HETATM    8  C   UNL     1       3.360   1.223   0.076  1.00  0.00     0.076 A 
HETATM    9  C   UNL     1       2.615   0.026   0.094  1.00  0.00     0.025 A 
HETATM   10  C   UNL     1       1.139  -0.117   0.117  1.00  0.00     0.070 C 
HETATM   11  N   UNL     1       3.413  -1.045   0.085  1.00  0.00    -0.302 N 
HETATM   12  N   UNL     1       4.659  -0.528   0.062  1.00  0.00    -0.281 N 
ATOM     13  HN  UNL     1       3.142  -2.028   0.094  1.00  0.00     0.186 HD
HETATM   14  C   UNL     1       5.765  -1.454   0.045  1.00  0.00     0.179 C 
ENDBRANCH   1   7
BRANCH   4  15
HETATM   15  C   UNL     1       7.038   5.129  -0.084  1.00  0.00     0.156 C 
BRANCH  15  16
HETATM   16  C   UNL     1       8.264   5.650  -0.826  1.00  0.00     0.139 C 
HETATM   17  C   UNL     1       8.325   5.291  -2.304  1.00  0.00     0.035 C 
HETATM   18  C   UNL     1       9.804   5.101  -2.580  1.00  0.00     0.029 C 
HETATM   19  C   UNL     1      10.481   5.325  -1.242  1.00  0.00     0.168 C 
HETATM   20  O   UNL     1       9.463   5.096  -0.260  1.00  0.00    -0.384 OA
ENDBRANCH  15  16
ENDBRANCH   4  15
TORSDOF 3
