REMARK  4 active torsions:
REMARK  status: ('A' for Active; 'I' for Inactive)
REMARK    1  A    between atoms: N_11  and  C_12 
REMARK    2  A    between atoms: C_12  and  C_13 
REMARK    3  A    between atoms: C_13  and  O_14 
REMARK    4  A    between atoms: C_13  and  C_15 
ROOT
HETATM    1  C   UNL     1       0.996   0.089  -0.108  1.00  0.00     0.164 C 
HETATM    2  N   UNL     1       2.444   0.006  -0.096  1.00  0.00    -0.269 N 
HETATM    3  C   UNL     1       3.041  -1.271  -0.084  1.00  0.00     0.332 A 
HETATM    4  O   UNL     1       2.359  -2.299  -0.085  1.00  0.00    -0.246 OA
HETATM    5  N   UNL     1       4.437  -1.321  -0.068  1.00  0.00    -0.287 N 
HETATM    6  C   UNL     1       5.131  -2.596  -0.061  1.00  0.00     0.163 C 
HETATM    7  C   UNL     1       5.153  -0.149  -0.060  1.00  0.00     0.145 A 
HETATM    8  N   UNL     1       6.511  -0.037  -0.031  1.00  0.00    -0.336 N 
ATOM      9  HN  UNL     1       7.200  -0.789  -0.008  1.00  0.00     0.168 HD
HETATM   10  C   UNL     1       6.733   1.262  -0.040  1.00  0.00     0.185 A 
HETATM   11  N   UNL     1       5.563   1.976  -0.077  1.00  0.00    -0.333 N 
HETATM   12  C   UNL     1       4.542   1.067  -0.079  1.00  0.00     0.149 A 
HETATM   13  C   UNL     1       3.130   1.225  -0.114  1.00  0.00     0.282 A 
HETATM   14  O   UNL     1       2.582   2.325  -0.154  1.00  0.00    -0.265 OA
ENDROOT
BRANCH  11  15
HETATM   15  C   UNL     1       5.450   3.422  -0.069  1.00  0.00     0.171 C 
BRANCH  15  16
HETATM   16  C   UNL     1       5.388   4.027  -1.475  1.00  0.00     0.243 C 
BRANCH  16  17
HETATM   17  O   UNL     1       4.278   3.483  -2.218  1.00  0.00    -0.385 OA
HETATM   18  H   UNL     1       3.447   3.723  -1.758  1.00  0.00     0.210 HD
ENDBRANCH  16  17
BRANCH  16  19
HETATM   19  C   UNL     1       5.347   5.562  -1.386  1.00  0.00     0.414 C 
HETATM   20  F   UNL     1       5.415   6.000  -0.108  1.00  0.00    -0.168 F 
HETATM   21  F   UNL     1       6.386   6.113  -2.054  1.00  0.00    -0.168 F 
HETATM   22  F   UNL     1       4.207   6.061  -1.915  1.00  0.00    -0.168 F 
ENDBRANCH  16  19
ENDBRANCH  15  16
ENDBRANCH  11  15
TORSDOF 4
