REMARK  5 active torsions:
REMARK  status: ('A' for Active; 'I' for Inactive)
REMARK    1  A    between atoms: O_2  and  C_3 
REMARK    2  A    between atoms: C_3  and  C_4 
REMARK    3  A    between atoms: C_4  and  N_6 
REMARK       I    between atoms: N_6  and  C_7 
REMARK       I    between atoms: C_7  and  N_9 
REMARK    4  A    between atoms: N_9  and  C_10 
REMARK    5  A    between atoms: C_13  and  N_17 
ROOT
HETATM    1  C   UNL     1       8.327   2.196  -3.944  1.00  0.00     0.051 A 
HETATM    2  C   UNL     1       8.820   3.438  -4.305  1.00  0.00     0.035 A 
HETATM    3  C   UNL     1      10.163   3.567  -4.664  1.00  0.00     0.051 A 
HETATM    4  C   UNL     1      10.994   2.449  -4.744  1.00  0.00     0.103 A 
HETATM    5  N   UNL     1      10.506   1.232  -4.408  1.00  0.00    -0.350 N 
ATOM      6  HN  UNL     1      11.099   0.404  -4.461  1.00  0.00     0.166 HD
HETATM    7  C   UNL     1       9.211   1.129  -3.998  1.00  0.00     0.119 A 
ENDROOT
BRANCH   1   8
HETATM    8  N   UNL     1       6.977   2.094  -3.549  1.00  0.00    -0.308 N 
HETATM    9  C   UNL     1       6.578   1.349  -2.462  1.00  0.00     0.321 C 
HETATM   10  N   UNL     1       5.226   1.508  -2.230  1.00  0.00    -0.337 N 
HETATM   11  O   UNL     1       7.316   0.703  -1.727  1.00  0.00    -0.247 OA
HETATM   12  H   UNL     1       4.671   1.486  -3.075  1.00  0.00     0.164 HD
HETATM   13  H   UNL     1       6.399   2.908  -3.705  1.00  0.00     0.170 HD
BRANCH  10  14
HETATM   14  C   UNL     1       4.610   0.942  -1.024  1.00  0.00     0.105 C 
HETATM   15  C   UNL     1       3.087   0.938  -1.165  1.00  0.00     0.034 C 
BRANCH  14  16
HETATM   16  C   UNL     1       5.033   1.720   0.243  1.00  0.00     0.191 C 
BRANCH  16  17
HETATM   17  O   UNL     1       4.450   1.118   1.403  1.00  0.00    -0.394 OA
HETATM   18  C   UNL     1       4.850   1.785   2.594  1.00  0.00     0.201 C 
ENDBRANCH  16  17
ENDBRANCH  14  16
ENDBRANCH  10  14
ENDBRANCH   1   8
BRANCH   4  19
HETATM   19  N   UNL     1      12.300   2.545  -5.158  1.00  0.00    -0.367 N 
HETATM   20  C   UNL     1      13.073   1.335  -5.420  1.00  0.00     0.124 C 
HETATM   21  C   UNL     1      14.220   1.791  -6.326  1.00  0.00     0.021 C 
HETATM   22  C   UNL     1      13.793   3.155  -6.846  1.00  0.00     0.021 C 
HETATM   23  C   UNL     1      12.935   3.721  -5.725  1.00  0.00     0.124 C 
ENDBRANCH   4  19
TORSDOF 5
