REMARK  4 active torsions:
REMARK  status: ('A' for Active; 'I' for Inactive)
REMARK    1  A    between atoms: C_2  and  N_3 
REMARK    2  A    between atoms: C_2  and  C_7 
REMARK       I    between atoms: N_3  and  C_4 
REMARK       I    between atoms: C_4  and  N_6 
REMARK       I    between atoms: C_7  and  N_9 
REMARK    3  A    between atoms: N_9  and  C_10 
REMARK    4  A    between atoms: C_13  and  N_17 
ROOT
HETATM    1  C   UNL     1       4.924  -1.504   2.770  1.00  0.00     0.050 A 
HETATM    2  C   UNL     1       5.786  -0.940   3.696  1.00  0.00     0.035 A 
HETATM    3  C   UNL     1       6.202  -1.673   4.811  1.00  0.00     0.051 A 
HETATM    4  C   UNL     1       5.767  -2.983   5.012  1.00  0.00     0.103 A 
HETATM    5  N   UNL     1       4.889  -3.528   4.141  1.00  0.00    -0.350 N 
ATOM      6  HN  UNL     1       4.530  -4.471   4.288  1.00  0.00     0.166 HD
HETATM    7  C   UNL     1       4.491  -2.794   3.061  1.00  0.00     0.119 A 
ENDROOT
BRANCH   1   8
HETATM    8  N   UNL     1       4.457  -0.816   1.625  1.00  0.00    -0.324 N 
HETATM    9  C   UNL     1       4.963   0.389   1.146  1.00  0.00     0.244 C 
HETATM   10  O   UNL     1       5.999   0.932   1.536  1.00  0.00    -0.271 OA
HETATM   11  H   UNL     1       3.736  -1.273   1.079  1.00  0.00     0.169 HD
BRANCH   9  12
HETATM   12  C   UNL     1       4.105   1.052   0.047  1.00  0.00     0.174 C 
HETATM   13  C   UNL     1       2.736   1.426   0.608  1.00  0.00     0.042 C 
BRANCH  12  14
HETATM   14  N   UNL     1       4.809   2.243  -0.423  1.00  0.00    -0.330 N 
HETATM   15  C   UNL     1       4.429   2.933  -1.526  1.00  0.00     0.314 C 
HETATM   16  O   UNL     1       3.501   2.621  -2.258  1.00  0.00    -0.248 OA
HETATM   17  N   UNL     1       5.163   4.046  -1.746  1.00  0.00    -0.352 N 
HETATM   18  H   UNL     1       5.985   4.281  -1.215  1.00  0.00     0.160 HD
HETATM   19  H   UNL     1       4.928   4.600  -2.559  1.00  0.00     0.160 HD
HETATM   20  H   UNL     1       5.570   2.583   0.152  1.00  0.00     0.165 HD
ENDBRANCH  12  14
ENDBRANCH   9  12
ENDBRANCH   1   8
BRANCH   4  21
HETATM   21  N   UNL     1       6.188  -3.704   6.107  1.00  0.00    -0.363 N 
HETATM   22  C   UNL     1       7.494  -3.498   6.747  1.00  0.00     0.150 C 
HETATM   23  C   UNL     1       8.343  -4.777   6.669  1.00  0.00     0.187 C 
HETATM   24  O   UNL     1       7.643  -5.912   7.198  1.00  0.00    -0.388 OA
HETATM   25  C   UNL     1       6.438  -6.139   6.445  1.00  0.00     0.187 C 
HETATM   26  C   UNL     1       5.493  -4.931   6.513  1.00  0.00     0.150 C 
ENDBRANCH   4  21
TORSDOF 4
