REMARK  4 active torsions:
REMARK  status: ('A' for Active; 'I' for Inactive)
REMARK    1  A    between atoms: C_2  and  C_3 
REMARK    2  A    between atoms: C_3  and  N_4 
REMARK       I    between atoms: N_4  and  C_5 
REMARK       I    between atoms: C_5  and  N_7 
REMARK    3  A    between atoms: N_7  and  C_8 
REMARK    4  A    between atoms: C_19  and  O_20 
ROOT
HETATM    1  N   UNL     1       2.735  -0.522   2.456  1.00  0.00    -0.342 N 
HETATM    2  C   UNL     1       2.234   0.004   3.618  1.00  0.00     0.320 C 
HETATM    3  O   UNL     1       2.244   1.208   3.858  1.00  0.00    -0.247 OA
HETATM    4  N   UNL     1       1.655  -0.963   4.411  1.00  0.00    -0.308 N 
HETATM    5  H   UNL     1       2.928  -1.516   2.395  1.00  0.00     0.164 HD
HETATM    6  H   UNL     1       1.321  -1.772   3.908  1.00  0.00     0.170 HD
ENDROOT
BRANCH   1   7
HETATM    7  C   UNL     1       3.222   0.313   1.376  1.00  0.00     0.136 C 
BRANCH   7   8
HETATM    8  C   UNL     1       2.603  -0.071   0.005  1.00  0.00    -0.002 C 
HETATM    9  C   UNL     1       1.061   0.014   0.114  1.00  0.00     0.019 C 
HETATM   10  C   UNL     1       3.103   0.954  -1.047  1.00  0.00     0.013 C 
HETATM   11  C   UNL     1       2.720   0.593  -2.482  1.00  0.00     0.001 C 
HETATM   12  C   UNL     1       3.177  -0.816  -2.851  1.00  0.00     0.002 C 
HETATM   13  C   UNL     1       2.694  -1.856  -1.848  1.00  0.00     0.032 C 
HETATM   14  C   UNL     1       3.081  -1.490  -0.413  1.00  0.00     0.128 C 
BRANCH  14  15
HETATM   15  O   UNL     1       2.591  -2.495   0.480  1.00  0.00    -0.395 OA
HETATM   16  H   UNL     1       1.654  -2.655   0.253  1.00  0.00     0.210 HD
ENDBRANCH  14  15
ENDBRANCH   7   8
ENDBRANCH   1   7
BRANCH   4  17
HETATM   17  C   UNL     1       1.011  -0.640   5.623  1.00  0.00     0.051 A 
HETATM   18  C   UNL     1      -0.165  -1.303   5.964  1.00  0.00     0.032 A 
HETATM   19  C   UNL     1      -0.856  -0.921   7.112  1.00  0.00     0.019 A 
HETATM   20  C   UNL     1      -0.313   0.074   7.911  1.00  0.00     0.088 A 
HETATM   21  N   UNL     1       0.850   0.700   7.643  1.00  0.00    -0.373 N 
HETATM   22  C   UNL     1       1.479   0.340   6.497  1.00  0.00     0.117 A 
ATOM     23  HN  UNL     1       1.236   1.407   8.269  1.00  0.00     0.164 HD
ENDBRANCH   4  17
TORSDOF 4
