REMARK  6 active torsions:
REMARK  status: ('A' for Active; 'I' for Inactive)
REMARK    1  A    between atoms: C_2  and  C_3 
REMARK    2  A    between atoms: C_6  and  C_7 
REMARK    3  A    between atoms: C_7  and  C_8 
REMARK    4  A    between atoms: C_8  and  N_9 
REMARK       I    between atoms: N_9  and  C_10 
REMARK    5  A    between atoms: C_10  and  C_12 
REMARK    6  A    between atoms: C_12  and  C_13 
ROOT
HETATM    1  C   UNL     1       2.858  -4.444   2.699  1.00  0.00     0.129 C 
ENDROOT
BRANCH   1   2
HETATM    2  C   UNL     1       3.407  -3.423   3.694  1.00  0.00     0.084 C 
BRANCH   2   3
HETATM    3  C   UNL     1       4.801  -3.747   4.137  1.00  0.00     0.053 A 
HETATM    4  N   UNL     1       5.685  -4.399   3.413  1.00  0.00    -0.356 N 
HETATM    5  C   UNL     1       6.878  -4.528   4.104  1.00  0.00     0.022 A 
ATOM      6  HN  UNL     1       5.515  -4.759   2.474  1.00  0.00     0.166 HD
HETATM    7  C   UNL     1       6.872  -3.978   5.376  1.00  0.00     0.003 A 
HETATM    8  S   UNL     1       5.346  -3.266   5.692  1.00  0.00    -0.080 SA
HETATM    9  C   UNL     1       7.955  -3.946   6.396  1.00  0.00     0.058 C 
BRANCH   5  10
HETATM   10  C   UNL     1       8.009  -5.229   3.423  1.00  0.00     0.054 C 
HETATM   11  C   UNL     1       7.981  -6.731   3.660  1.00  0.00     0.011 C 
ENDBRANCH   5  10
ENDBRANCH   2   3
ENDBRANCH   1   2
BRANCH   1  12
HETATM   12  N   UNL     1       2.699  -5.769   3.279  1.00  0.00    -0.361 N 
HETATM   13  C   UNL     1       1.833  -6.677   2.712  1.00  0.00     0.217 C 
HETATM   14  O   UNL     1       1.055  -6.400   1.805  1.00  0.00    -0.274 OA
HETATM   15  H   UNL     1       3.511  -6.149   3.754  1.00  0.00     0.162 HD
BRANCH  13  16
HETATM   16  C   UNL     1       1.868  -8.052   3.347  1.00  0.00     0.107 C 
BRANCH  16  17
HETATM   17  C   UNL     1       0.999  -8.110   4.602  1.00  0.00    -0.006 C 
HETATM   18  C   UNL     1       1.007  -9.496   5.260  1.00  0.00     0.005 C 
HETATM   19  C   UNL     1      -0.379  -9.681   5.883  1.00  0.00     0.000 C 
HETATM   20  C   UNL     1      -1.157  -8.408   5.574  1.00  0.00     0.000 C 
HETATM   21  C   UNL     1      -0.483  -7.851   4.333  1.00  0.00     0.005 C 
ENDBRANCH  16  17
ENDBRANCH  13  16
ENDBRANCH   1  12
TORSDOF 6
