REMARK  4 active torsions:
REMARK  status: ('A' for Active; 'I' for Inactive)
REMARK    1  A    between atoms: C_4  and  C_8 
REMARK    2  A    between atoms: C_8  and  N_9 
REMARK    3  A    between atoms: C_8  and  C_10 
REMARK    4  A    between atoms: C_10  and  N_11 
ROOT
HETATM    1  C   UNL     1       5.872   1.479   0.088  1.00  0.00     0.281 C 
ENDROOT
BRANCH   1   2
HETATM    2  C   UNL     1       4.601   0.684   0.074  1.00  0.00     0.010 A 
HETATM    3  C   UNL     1       3.288   1.119   0.031  1.00  0.00     0.120 A 
HETATM    4  N   UNL     1       2.509   0.000   0.068  1.00  0.00    -0.308 N 
HETATM    5  C   UNL     1       1.068  -0.058   0.066  1.00  0.00     0.177 C 
HETATM    6  N   UNL     1       3.216  -1.140   0.129  1.00  0.00    -0.310 N 
HETATM    7  C   UNL     1       4.485  -0.725   0.133  1.00  0.00     0.118 A 
ATOM      8  HN  UNL     1       2.866  -2.097   0.164  1.00  0.00     0.186 HD
ENDBRANCH   1   2
BRANCH   1   9
HETATM    9  N   UNL     1       5.903   2.298  -1.131  1.00  0.00     0.089 N 
HETATM   10  H   UNL     1       5.101   2.924  -1.131  1.00  0.00     0.313 HD
HETATM   11  H   UNL     1       5.776   1.681  -1.933  1.00  0.00     0.313 HD
ENDBRANCH   1   9
BRANCH   1  12
HETATM   12  C   UNL     1       6.011   2.368   1.356  1.00  0.00     0.306 C 
BRANCH  12  13
HETATM   13  N   UNL     1       6.050   1.609   2.614  1.00  0.00     0.080 N 
HETATM   14  H   UNL     1       5.197   1.053   2.696  1.00  0.00     0.312 HD
HETATM   15  H   UNL     1       6.038   2.262   3.396  1.00  0.00     0.312 HD
ENDBRANCH  12  13
ENDBRANCH   1  12
TORSDOF 4
