REMARK  5 active torsions:
REMARK  status: ('A' for Active; 'I' for Inactive)
REMARK    1  A    between atoms: N_2  and  C_3 
REMARK    2  A    between atoms: N_7  and  C_8 
REMARK    3  A    between atoms: C_8  and  C_9 
REMARK    4  A    between atoms: C_9  and  O_10 
REMARK    5  A    between atoms: O_10  and  C_11 
ROOT
HETATM    1  C   UNL     1       3.227   0.165  -1.175  1.00  0.00     0.052 A 
HETATM    2  C   UNL     1       4.699   0.280  -1.323  1.00  0.00     0.132 A 
HETATM    3  N   UNL     1       5.356   0.424  -2.431  1.00  0.00    -0.305 N 
ATOM      4  HN  UNL     1       6.374   0.494  -2.440  1.00  0.00     0.186 HD
HETATM    5  N   UNL     1       4.624   0.478  -3.594  1.00  0.00    -0.254 N 
HETATM    6  C   UNL     1       3.241   0.329  -3.648  1.00  0.00     0.285 A 
HETATM    7  O   UNL     1       2.611   0.282  -4.703  1.00  0.00    -0.265 OA
HETATM    8  C   UNL     1       2.553   0.221  -2.332  1.00  0.00     0.126 A 
HETATM    9 CL   UNL     1       0.823   0.099  -2.349  1.00  0.00    -0.076 Cl
ENDROOT
BRANCH   5  10
HETATM   10  C   UNL     1       5.386   0.611  -4.835  1.00  0.00     0.179 C 
BRANCH  10  11
HETATM   11  C   UNL     1       5.844  -0.742  -5.375  1.00  0.00     0.197 C 
BRANCH  11  12
HETATM   12  O   UNL     1       6.556  -0.541  -6.603  1.00  0.00    -0.349 OA
BRANCH  12  13
HETATM   13  C   UNL     1       6.959  -1.684  -7.240  1.00  0.00     0.068 A 
HETATM   14  C   UNL     1       7.050  -1.601  -8.633  1.00  0.00     0.038 A 
HETATM   15  C   UNL     1       7.455  -2.710  -9.383  1.00  0.00     0.026 A 
HETATM   16  C   UNL     1       7.784  -3.898  -8.735  1.00  0.00     0.034 A 
HETATM   17 CL   UNL     1       8.275  -5.269  -9.650  1.00  0.00    -0.084 Cl
HETATM   18  C   UNL     1       7.725  -3.980  -7.346  1.00  0.00     0.026 A 
HETATM   19  C   UNL     1       7.315  -2.872  -6.598  1.00  0.00     0.038 A 
ENDBRANCH  12  13
ENDBRANCH  11  12
ENDBRANCH  10  11
ENDBRANCH   5  10
BRANCH   1  20
HETATM   20  N   UNL     1       2.698   0.057   0.112  1.00  0.00    -0.294 NA
HETATM   21  C   UNL     1       2.658  -1.256   0.760  1.00  0.00     0.113 C 
HETATM   22  H   UNL     1       1.737   0.413   0.099  1.00  0.00     0.127 HD
ENDBRANCH   1  20
TORSDOF 5
