REMARK  4 active torsions:
REMARK  status: ('A' for Active; 'I' for Inactive)
REMARK    1  A    between atoms: C_2  and  C_5 
REMARK    2  A    between atoms: N_9  and  C_10 
REMARK    3  A    between atoms: C_10  and  C_11 
REMARK       I    between atoms: C_11  and  N_13 
REMARK    4  A    between atoms: N_13  and  C_14 
ROOT
HETATM    1  C   UNL     1       1.881  -4.542  -1.827  1.00  0.00     0.234 C 
ENDROOT
BRANCH   1   2
HETATM    2  N   UNL     1       1.726  -5.065  -3.178  1.00  0.00    -0.315 N 
HETATM    3  C   UNL     1       1.552  -4.192  -4.236  1.00  0.00     0.095 C 
HETATM    4  C   UNL     1       1.507  -4.645  -5.493  1.00  0.00     0.018 C 
HETATM    5  C   UNL     1       1.740  -6.043  -5.752  1.00  0.00     0.023 C 
HETATM    6  C   UNL     1       1.869  -6.931  -4.747  1.00  0.00     0.115 C 
HETATM    7  C   UNL     1       1.736  -6.452  -3.347  1.00  0.00     0.263 C 
HETATM    8  O   UNL     1       1.654  -7.220  -2.391  1.00  0.00    -0.267 OA
BRANCH   6   9
HETATM    9  C   UNL     1       2.237  -8.352  -4.964  1.00  0.00     0.422 C 
HETATM   10  F   UNL     1       2.366  -9.112  -3.850  1.00  0.00    -0.166 F 
HETATM   11  F   UNL     1       3.432  -8.438  -5.615  1.00  0.00    -0.166 F 
HETATM   12  F   UNL     1       1.334  -8.983  -5.761  1.00  0.00    -0.166 F 
ENDBRANCH   6   9
ENDBRANCH   1   2
BRANCH   1  13
HETATM   13  C   UNL     1       0.560  -4.544  -1.063  1.00  0.00     0.236 C 
HETATM   14  O   UNL     1      -0.253  -3.629  -1.135  1.00  0.00    -0.272 OA
HETATM   15  N   UNL     1       0.351  -5.695  -0.327  1.00  0.00    -0.354 N 
HETATM   16  H   UNL     1       0.868  -6.513  -0.658  1.00  0.00     0.162 HD
BRANCH  15  17
HETATM   17  C   UNL     1      -0.875  -5.916   0.424  1.00  0.00     0.099 C 
HETATM   18  C   UNL     1      -0.613  -6.856   1.610  1.00  0.00     0.041 C 
HETATM   19  C   UNL     1      -1.879  -7.636   1.950  1.00  0.00     0.142 C 
HETATM   20  S   UNL     1      -3.098  -7.212   0.731  1.00  0.00     0.146 S 
HETATM   21  O   UNL     1      -3.666  -8.428   0.180  1.00  0.00    -0.228 OA
HETATM   22  O   UNL     1      -3.929  -6.150   1.264  1.00  0.00    -0.228 OA
HETATM   23  C   UNL     1      -1.970  -6.520  -0.441  1.00  0.00     0.165 C 
ENDBRANCH  15  17
ENDBRANCH   1  13
TORSDOF 4
