REMARK  1 active torsions:
REMARK  status: ('A' for Active; 'I' for Inactive)
REMARK    1  A    between atoms: C_5  and  N_6 
ROOT
HETATM    1  O   UNL     1       1.098   0.070   0.201  1.00  0.00    -0.247 OA
HETATM    2  C   UNL     1       2.309   0.054   0.005  1.00  0.00     0.327 C 
HETATM    3  N   UNL     1       2.948  -1.050  -0.473  1.00  0.00    -0.316 N 
HETATM    4  C   UNL     1       4.298  -1.116  -0.680  1.00  0.00     0.128 C 
HETATM    5  C   UNL     1       5.141  -0.105  -0.399  1.00  0.00     0.115 C 
HETATM    6  C   UNL     1       4.474   1.118   0.224  1.00  0.00     0.277 C 
HETATM    7  O   UNL     1       5.104   2.055   0.710  1.00  0.00    -0.266 OA
HETATM    8  N   UNL     1       3.105   1.127   0.261  1.00  0.00    -0.274 N 
HETATM    9  H   UNL     1       2.355  -1.845  -0.683  1.00  0.00     0.170 HD
HETATM   10  H   UNL     1       2.668   1.927   0.688  1.00  0.00     0.173 HD
ENDROOT
BRANCH   5  11
HETATM   11  N   UNL     1       6.528  -0.133  -0.606  1.00  0.00    -0.371 N 
HETATM   12  C   UNL     1       7.348   1.071  -0.873  1.00  0.00     0.149 C 
HETATM   13  C   UNL     1       8.017   0.943  -2.256  1.00  0.00     0.187 C 
HETATM   14  O   UNL     1       8.787  -0.265  -2.378  1.00  0.00    -0.388 OA
HETATM   15  C   UNL     1       7.959  -1.415  -2.144  1.00  0.00     0.187 C 
HETATM   16  C   UNL     1       7.331  -1.364  -0.745  1.00  0.00     0.149 C 
ENDBRANCH   5  11
TORSDOF 1
