REMARK  3 active torsions:
REMARK  status: ('A' for Active; 'I' for Inactive)
REMARK       I    between atoms: N_8  and  C_9 
REMARK       I    between atoms: C_9  and  N_11 
REMARK    1  A    between atoms: N_11  and  C_12 
REMARK    2  A    between atoms: N_15  and  C_16 
REMARK    3  A    between atoms: C_16  and  C_17 
REMARK       I    between atoms: C_17  and  N_19 
ROOT
HETATM    1  C   UNL     1       3.486   1.469  -2.702  1.00  0.00     0.078 C 
HETATM    2  C   UNL     1       4.640   1.252  -1.798  1.00  0.00     0.066 A 
HETATM    3  N   UNL     1       5.525   0.291  -1.959  1.00  0.00    -0.296 N 
ATOM      4  HN  UNL     1       5.478  -0.411  -2.698  1.00  0.00     0.187 HD
HETATM    5  N   UNL     1       6.517   0.347  -1.014  1.00  0.00    -0.279 N 
ATOM      6  HN  UNL     1       7.298  -0.307  -0.969  1.00  0.00     0.189 HD
HETATM    7  C   UNL     1       6.344   1.341  -0.173  1.00  0.00     0.169 A 
HETATM    8  N   UNL     1       7.167   1.717   0.846  1.00  0.00    -0.288 N 
HETATM    9  C   UNL     1       8.429   1.221   1.036  1.00  0.00     0.322 C 
HETATM   10  O   UNL     1       9.124   1.653   1.953  1.00  0.00    -0.247 OA
HETATM   11  N   UNL     1       8.875   0.306   0.123  1.00  0.00    -0.338 N 
HETATM   12  S   UNL     1       4.942   2.270  -0.437  1.00  0.00    -0.038 SA
HETATM   13  H   UNL     1       6.891   2.478   1.453  1.00  0.00     0.172 HD
HETATM   14  H   UNL     1       8.186  -0.099  -0.504  1.00  0.00     0.164 HD
ENDROOT
BRANCH  11  15
HETATM   15  C   UNL     1      10.253  -0.145   0.012  1.00  0.00     0.089 C 
HETATM   16  C   UNL     1      10.625  -0.361  -1.461  1.00  0.00     0.055 C 
HETATM   17  C   UNL     1      10.228  -1.741  -1.989  1.00  0.00     0.275 C 
HETATM   18  N   UNL     1      10.705  -2.861  -1.163  1.00  0.00     0.097 N 
HETATM   19  C   UNL     1      10.180  -2.706   0.204  1.00  0.00     0.275 C 
HETATM   20  C   UNL     1      10.526  -1.376   0.882  1.00  0.00     0.055 C 
BRANCH  18  21
HETATM   21  C   UNL     1      12.182  -3.000  -1.163  1.00  0.00     0.374 C 
BRANCH  21  22
HETATM   22  C   UNL     1      12.719  -3.325  -2.559  1.00  0.00     0.243 C 
HETATM   23  O   UNL     1      13.547  -2.637  -3.147  1.00  0.00    -0.272 OA
HETATM   24  N   UNL     1      12.235  -4.478  -3.114  1.00  0.00    -0.369 N 
HETATM   25  H   UNL     1      11.353  -4.837  -2.772  1.00  0.00     0.159 HD
HETATM   26  H   UNL     1      12.489  -4.659  -4.075  1.00  0.00     0.159 HD
ENDBRANCH  21  22
ENDBRANCH  18  21
ENDBRANCH  11  15
TORSDOF 3
