REMARK  4 active torsions:
REMARK  status: ('A' for Active; 'I' for Inactive)
REMARK    1  A    between atoms: O_1  and  C_2 
REMARK    2  A    between atoms: C_2  and  C_3 
REMARK    3  A    between atoms: C_3  and  N_4 
REMARK       I    between atoms: N_4  and  C_5 
REMARK       I    between atoms: C_5  and  N_7 
REMARK    4  A    between atoms: N_7  and  C_8 
ROOT
HETATM    1  N   UNL     1       4.430   0.357   1.656  1.00  0.00    -0.340 N 
HETATM    2  C   UNL     1       5.031   0.840   2.799  1.00  0.00     0.321 C 
HETATM    3  O   UNL     1       4.402   1.427   3.672  1.00  0.00    -0.247 OA
HETATM    4  N   UNL     1       6.361   0.518   2.836  1.00  0.00    -0.295 N 
HETATM    5  H   UNL     1       5.017   0.268   0.837  1.00  0.00     0.164 HD
HETATM    6  H   UNL     1       6.596  -0.371   2.423  1.00  0.00     0.172 HD
ENDROOT
BRANCH   1   7
HETATM    7  C   UNL     1       2.997   0.498   1.474  1.00  0.00     0.162 C 
BRANCH   7   8
HETATM    8  C   UNL     1       2.505   0.094   0.062  1.00  0.00     0.074 C 
HETATM    9  C   UNL     1       0.965   0.093   0.044  1.00  0.00     0.039 C 
HETATM   10  C   UNL     1       0.389  -0.179  -1.345  1.00  0.00     0.003 C 
HETATM   11  C   UNL     1       0.950   0.788  -2.382  1.00  0.00     0.000 C 
HETATM   12  C   UNL     1       2.474   0.763  -2.400  1.00  0.00     0.003 C 
HETATM   13  C   UNL     1       3.059   1.045  -1.015  1.00  0.00     0.039 C 
BRANCH   8  14
HETATM   14  O   UNL     1       2.973  -1.227  -0.243  1.00  0.00    -0.388 OA
HETATM   15  H   UNL     1       2.649  -1.826   0.453  1.00  0.00     0.210 HD
ENDBRANCH   8  14
ENDBRANCH   7   8
ENDBRANCH   1   7
BRANCH   4  16
HETATM   16  C   UNL     1       7.180   0.818   3.928  1.00  0.00     0.108 A 
HETATM   17  C   UNL     1       7.129   2.044   4.580  1.00  0.00     0.049 A 
HETATM   18  C   UNL     1       7.951   2.246   5.686  1.00  0.00     0.005 A 
HETATM   19  C   UNL     1       8.774   1.213   6.116  1.00  0.00     0.017 A 
HETATM   20  C   UNL     1       8.775   0.034   5.389  1.00  0.00     0.089 A 
HETATM   21  N   UNL     1       8.025  -0.172   4.284  1.00  0.00    -0.352 N 
ATOM     22  HN  UNL     1       8.094  -1.035   3.745  1.00  0.00     0.166 HD
ENDBRANCH   4  16
TORSDOF 4
