REMARK  5 active torsions:
REMARK  status: ('A' for Active; 'I' for Inactive)
REMARK    1  A    between atoms: C_2  and  C_4 
REMARK    2  A    between atoms: C_4  and  C_5 
REMARK    3  A    between atoms: C_5  and  N_6 
REMARK    4  A    between atoms: C_10  and  N_11 
REMARK       I    between atoms: N_11  and  C_12 
REMARK       I    between atoms: C_12  and  N_14 
REMARK    5  A    between atoms: N_14  and  C_15 
ROOT
HETATM    1  N   UNL     1       4.975   0.510  -2.739  1.00  0.00    -0.295 N 
HETATM    2  N   UNL     1       5.002   1.781  -3.175  1.00  0.00    -0.307 N 
ATOM      3  HN  UNL     1       4.743   2.627  -2.668  1.00  0.00     0.186 HD
HETATM    4  C   UNL     1       5.446   1.675  -4.424  1.00  0.00     0.139 A 
HETATM    5  C   UNL     1       5.715   0.339  -4.799  1.00  0.00     0.077 A 
HETATM    6  C   UNL     1       5.407  -0.406  -3.672  1.00  0.00     0.052 A 
HETATM    7  C   UNL     1       5.473  -1.862  -3.383  1.00  0.00     0.072 C 
ENDROOT
BRANCH   5   8
HETATM    8  N   UNL     1       6.180  -0.159  -6.008  1.00  0.00    -0.306 N 
HETATM    9  C   UNL     1       6.407   0.646  -7.106  1.00  0.00     0.321 C 
HETATM   10  O   UNL     1       6.232   1.859  -7.139  1.00  0.00    -0.247 OA
HETATM   11  N   UNL     1       6.846  -0.061  -8.204  1.00  0.00    -0.332 N 
HETATM   12  H   UNL     1       7.302  -0.940  -8.014  1.00  0.00     0.165 HD
HETATM   13  H   UNL     1       6.269  -1.157  -6.100  1.00  0.00     0.171 HD
BRANCH  11  14
HETATM   14  C   UNL     1       7.169   0.596  -9.482  1.00  0.00     0.054 C 
HETATM   15  C   UNL     1       7.594  -0.485 -10.496  1.00  0.00     0.041 C 
HETATM   16  C   UNL     1       8.281   1.647  -9.372  1.00  0.00     0.059 C 
HETATM   17  C   UNL     1       7.855   2.766 -10.314  1.00  0.00     0.170 C 
HETATM   18  O   UNL     1       6.656   2.346 -10.976  1.00  0.00    -0.389 OA
HETATM   19  C   UNL     1       6.018   1.413 -10.091  1.00  0.00     0.198 C 
ENDBRANCH  11  14
ENDBRANCH   5   8
BRANCH   1  20
HETATM   20  C   UNL     1       4.499   0.275  -1.385  1.00  0.00     0.149 C 
BRANCH  20  21
HETATM   21  C   UNL     1       5.622   0.411  -0.358  1.00  0.00     0.025 C 
BRANCH  21  22
HETATM   22  C   UNL     1       5.152   0.205   1.093  1.00  0.00    -0.021 C 
HETATM   23  C   UNL     1       6.351   0.290   2.040  1.00  0.00     0.009 C 
HETATM   24  C   UNL     1       4.092   1.223   1.515  1.00  0.00     0.009 C 
ENDBRANCH  21  22
ENDBRANCH  20  21
ENDBRANCH   1  20
TORSDOF 5
