REMARK  3 active torsions:
REMARK  status: ('A' for Active; 'I' for Inactive)
REMARK    1  A    between atoms: O_1  and  C_2 
REMARK    2  A    between atoms: C_5  and  N_8 
REMARK       I    between atoms: N_8  and  C_9 
REMARK       I    between atoms: C_9  and  N_11 
REMARK    3  A    between atoms: N_11  and  C_12 
ROOT
HETATM    1  N   UNL     1       2.807  -1.088  -4.154  1.00  0.00    -0.338 N 
HETATM    2  C   UNL     1       3.591  -2.057  -4.738  1.00  0.00     0.321 C 
HETATM    3  O   UNL     1       4.470  -2.658  -4.129  1.00  0.00    -0.247 OA
HETATM    4  N   UNL     1       3.328  -2.192  -6.084  1.00  0.00    -0.306 N 
HETATM    5  H   UNL     1       1.849  -1.062  -4.475  1.00  0.00     0.164 HD
HETATM    6  H   UNL     1       3.076  -1.309  -6.515  1.00  0.00     0.171 HD
ENDROOT
BRANCH   1   7
HETATM    7  C   UNL     1       3.086  -0.704  -2.780  1.00  0.00     0.086 C 
HETATM    8  C   UNL     1       2.546   0.694  -2.468  1.00  0.00     0.028 C 
HETATM    9  C   UNL     1       2.927   1.108  -1.048  1.00  0.00     0.034 C 
HETATM   10  C   UNL     1       2.463   0.083  -0.012  1.00  0.00     0.118 C 
HETATM   11  C   UNL     1       2.936  -1.329  -0.352  1.00  0.00     0.034 C 
HETATM   12  C   UNL     1       2.548  -1.728  -1.772  1.00  0.00     0.028 C 
BRANCH  10  13
HETATM   13  O   UNL     1       2.975   0.432   1.268  1.00  0.00    -0.396 OA
HETATM   14  H   UNL     1       2.654   1.323   1.485  1.00  0.00     0.210 HD
ENDBRANCH  10  13
ENDBRANCH   1   7
BRANCH   4  15
HETATM   15  C   UNL     1       4.160  -3.027  -6.874  1.00  0.00     0.077 A 
HETATM   16  C   UNL     1       4.454  -4.334  -6.484  1.00  0.00     0.050 A 
HETATM   17  C   UNL     1       5.362  -5.052  -7.246  1.00  0.00     0.090 A 
HETATM   18  N   UNL     1       5.979  -4.559  -8.345  1.00  0.00    -0.372 N 
HETATM   19  C   UNL     1       5.663  -3.290  -8.701  1.00  0.00     0.132 A 
ATOM     20  HN  UNL     1       6.648  -5.114  -8.878  1.00  0.00     0.164 HD
HETATM   21  C   UNL     1       4.746  -2.510  -8.020  1.00  0.00     0.158 A 
HETATM   22  F   UNL     1       4.498  -1.250  -8.408  1.00  0.00    -0.202 F 
ENDBRANCH   4  15
TORSDOF 3
