REMARK  3 active torsions:
REMARK  status: ('A' for Active; 'I' for Inactive)
REMARK    1  A    between atoms: C_2  and  C_3 
REMARK    2  A    between atoms: C_2  and  N_10 
REMARK    3  A    between atoms: C_3  and  N_4 
REMARK       I    between atoms: N_10  and  C_11 
REMARK       I    between atoms: C_11  and  N_13 
ROOT
HETATM    1  N   UNL     1       3.145   1.011   0.973  1.00  0.00    -0.337 N 
HETATM    2  C   UNL     1       4.498   1.100   1.197  1.00  0.00     0.318 C 
HETATM    3  O   UNL     1       5.300   0.444   0.540  1.00  0.00    -0.247 OA
HETATM    4  N   UNL     1       4.869   1.964   2.212  1.00  0.00    -0.333 N 
HETATM    5  C   UNL     1       4.004   2.965   2.856  1.00  0.00     0.137 C 
HETATM    6  C   UNL     1       4.497   4.402   2.649  1.00  0.00     0.093 C 
HETATM    7  S   UNL     1       6.179   4.657   3.297  1.00  0.00    -0.166 SA
HETATM    8  C   UNL     1       6.988   3.282   2.412  1.00  0.00     0.093 C 
HETATM    9  C   UNL     1       6.268   1.956   2.657  1.00  0.00     0.137 C 
HETATM   10  H   UNL     1       2.601   1.082   1.820  1.00  0.00     0.164 HD
ENDROOT
BRANCH   1  11
HETATM   11  C   UNL     1       2.621   0.074  -0.030  1.00  0.00     0.100 C 
HETATM   12  C   UNL     1       1.140  -0.189   0.255  1.00  0.00     0.034 C 
BRANCH  11  13
HETATM   13  C   UNL     1       2.844   0.610  -1.461  1.00  0.00     0.153 C 
BRANCH  13  14
HETATM   14  N   UNL     1       2.397  -0.288  -2.507  1.00  0.00    -0.350 N 
HETATM   15  C   UNL     1       1.419  -0.039  -3.427  1.00  0.00     0.108 A 
HETATM   16  C   UNL     1       1.346  -1.183  -4.188  1.00  0.00     0.106 A 
HETATM   17  N   UNL     1       2.259  -2.111  -3.756  1.00  0.00    -0.361 N 
HETATM   18  C   UNL     1       2.890  -1.538  -2.755  1.00  0.00     0.182 A 
ATOM     19  HN  UNL     1       2.415  -3.046  -4.131  1.00  0.00     0.166 HD
ENDBRANCH  13  14
ENDBRANCH  11  13
ENDBRANCH   1  11
TORSDOF 3
