REMARK  5 active torsions:
REMARK  status: ('A' for Active; 'I' for Inactive)
REMARK    1  A    between atoms: N_2  and  C_4 
REMARK    2  A    between atoms: C_10  and  N_11 
REMARK       I    between atoms: N_11  and  C_12 
REMARK       I    between atoms: C_12  and  N_14 
REMARK    3  A    between atoms: N_14  and  C_15 
REMARK    4  A    between atoms: C_15  and  C_16 
REMARK    5  A    between atoms: C_16  and  C_17 
ROOT
HETATM    1  N   UNL     1       3.326  -1.670  -2.022  1.00  0.00    -0.306 N 
HETATM    2  C   UNL     1       2.696  -2.397  -1.032  1.00  0.00     0.320 C 
HETATM    3  O   UNL     1       1.863  -1.946  -0.253  1.00  0.00    -0.247 OA
HETATM    4  N   UNL     1       3.101  -3.711  -0.933  1.00  0.00    -0.343 N 
HETATM    5  H   UNL     1       3.792  -2.190  -2.762  1.00  0.00     0.170 HD
HETATM    6  H   UNL     1       3.343  -4.189  -1.790  1.00  0.00     0.164 HD
ENDROOT
BRANCH   1   7
HETATM    7  C   UNL     1       3.161  -0.257  -2.210  1.00  0.00     0.072 A 
HETATM    8  C   UNL     1       3.482   0.416  -3.405  1.00  0.00     0.144 A 
HETATM    9  C   UNL     1       3.242   1.788  -3.495  1.00  0.00     0.126 A 
HETATM   10  N   UNL     1       2.730   2.537  -2.489  1.00  0.00    -0.373 N 
HETATM   11  C   UNL     1       2.459   1.891  -1.342  1.00  0.00     0.090 A 
ATOM     12  HN  UNL     1       2.559   3.537  -2.596  1.00  0.00     0.164 HD
HETATM   13  C   UNL     1       2.670   0.534  -1.161  1.00  0.00     0.049 A 
BRANCH   8  14
HETATM   14  N   UNL     1       4.025  -0.245  -4.578  1.00  0.00    -0.112 N 
HETATM   15  O   UNL     1       4.261   0.446  -5.581  1.00  0.00    -0.532 OA
HETATM   16  O   UNL     1       4.233  -1.465  -4.514  1.00  0.00    -0.532 OA
ENDBRANCH   8  14
ENDBRANCH   1   7
BRANCH   4  17
HETATM   17  C   UNL     1       2.445  -4.493   0.111  1.00  0.00     0.128 C 
BRANCH  17  18
HETATM   18  C   UNL     1       2.858  -5.960   0.209  1.00  0.00     0.053 C 
BRANCH  18  19
HETATM   19  C   UNL     1       2.504  -6.758  -1.005  1.00  0.00    -0.082 C 
HETATM   20  C   UNL     1       3.341  -7.491  -1.749  1.00  0.00    -0.024 C 
HETATM   21  C   UNL     1       2.644  -8.119  -2.908  1.00  0.00     0.027 C 
HETATM   22  C   UNL     1       1.168  -7.943  -2.557  1.00  0.00     0.008 C 
HETATM   23  C   UNL     1       1.104  -6.808  -1.537  1.00  0.00     0.034 C 
ENDBRANCH  18  19
ENDBRANCH  17  18
ENDBRANCH   4  17
TORSDOF 5
