REMARK  4 active torsions:
REMARK  status: ('A' for Active; 'I' for Inactive)
REMARK    1  A    between atoms: C_4  and  C_5 
REMARK    2  A    between atoms: C_5  and  C_6 
REMARK    3  A    between atoms: C_6  and  N_7 
REMARK       I    between atoms: N_7  and  C_8 
REMARK       I    between atoms: C_8  and  N_10 
REMARK    4  A    between atoms: C_13  and  O_14 
ROOT
HETATM    1  N   UNL     1       6.657   3.932   0.047  1.00  0.00    -0.343 N 
HETATM    2  C   UNL     1       6.602   5.300   0.099  1.00  0.00     0.318 C 
HETATM    3  O   UNL     1       5.532   5.899   0.179  1.00  0.00    -0.247 OA
HETATM    4  N   UNL     1       7.829   5.942   0.038  1.00  0.00    -0.334 N 
HETATM    5  C   UNL     1       7.867   7.392   0.224  1.00  0.00     0.130 C 
HETATM    6  C   UNL     1       8.661   8.090  -0.878  1.00  0.00     0.051 C 
HETATM    7  C   UNL     1      10.030   7.450  -1.099  1.00  0.00     0.121 C 
HETATM    8  C   UNL     1       9.915   5.940  -1.281  1.00  0.00     0.051 C 
HETATM    9  C   UNL     1       9.127   5.290  -0.150  1.00  0.00     0.130 C 
HETATM   10  H   UNL     1       7.442   3.521   0.524  1.00  0.00     0.164 HD
ENDROOT
BRANCH   1  11
HETATM   11  C   UNL     1       5.433   3.150   0.046  1.00  0.00     0.129 C 
BRANCH  11  12
HETATM   12  C   UNL     1       5.686   1.653  -0.150  1.00  0.00     0.061 C 
BRANCH  12  13
HETATM   13  C   UNL     1       6.329   1.313  -1.453  1.00  0.00    -0.023 A 
HETATM   14  C   UNL     1       5.848   1.525  -2.729  1.00  0.00     0.118 A 
HETATM   15  N   UNL     1       6.796   1.045  -3.584  1.00  0.00    -0.308 N 
HETATM   16  C   UNL     1       6.748   1.050  -5.025  1.00  0.00     0.177 C 
HETATM   17  N   UNL     1       7.864   0.521  -2.955  1.00  0.00    -0.310 N 
HETATM   18  C   UNL     1       7.576   0.680  -1.662  1.00  0.00     0.115 A 
ATOM     19  HN  UNL     1       8.697   0.102  -3.369  1.00  0.00     0.186 HD
ENDBRANCH  12  13
ENDBRANCH  11  12
ENDBRANCH   1  11
BRANCH   7  20
HETATM   20  O   UNL     1      10.918   7.756  -0.025  1.00  0.00    -0.395 OA
HETATM   21  H   UNL     1      10.509   7.495   0.816  1.00  0.00     0.210 HD
ENDBRANCH   7  20
TORSDOF 4
