REMARK  5 active torsions:
REMARK  status: ('A' for Active; 'I' for Inactive)
REMARK       I    between atoms: C_2  and  N_3 
REMARK       I    between atoms: C_2  and  N_14 
REMARK    1  A    between atoms: N_3  and  C_4 
REMARK    2  A    between atoms: C_4  and  C_5 
REMARK    3  A    between atoms: C_5  and  C_6 
REMARK    4  A    between atoms: C_6  and  N_7 
REMARK    5  A    between atoms: N_14  and  C_15 
ROOT
HETATM    1  O   UNL     1       3.154  -3.421  -1.023  1.00  0.00    -0.247 OA
HETATM    2  C   UNL     1       1.974  -3.199  -1.279  1.00  0.00     0.321 C 
HETATM    3  N   UNL     1       1.521  -2.019  -1.780  1.00  0.00    -0.343 N 
HETATM    4  N   UNL     1       1.052  -4.192  -1.129  1.00  0.00    -0.295 N 
HETATM    5  H   UNL     1       0.508  -1.919  -1.800  1.00  0.00     0.164 HD
HETATM    6  H   UNL     1       1.471  -5.069  -0.854  1.00  0.00     0.172 HD
ENDROOT
BRANCH   3   7
HETATM    7  C   UNL     1       2.363  -0.914  -2.171  1.00  0.00     0.126 C 
BRANCH   7   8
HETATM    8  C   UNL     1       3.338  -1.268  -3.297  1.00  0.00     0.050 C 
BRANCH   8   9
HETATM    9  C   UNL     1       2.631  -1.831  -4.541  1.00  0.00     0.274 C 
BRANCH   9  10
HETATM   10  N   UNL     1       3.556  -2.208  -5.628  1.00  0.00     0.098 N 
HETATM   11  C   UNL     1       2.828  -2.623  -6.846  1.00  0.00     0.292 C 
HETATM   12  C   UNL     1       2.078  -3.958  -6.699  1.00  0.00     0.152 C 
HETATM   13  N   UNL     1       2.858  -4.989  -6.050  1.00  0.00    -0.358 N 
HETATM   14  C   UNL     1       3.819  -4.679  -5.117  1.00  0.00     0.246 C 
HETATM   15  H   UNL     1       2.447  -5.903  -5.910  1.00  0.00     0.162 HD
HETATM   16  O   UNL     1       4.182  -5.534  -4.312  1.00  0.00    -0.272 OA
HETATM   17  C   UNL     1       4.487  -3.305  -5.246  1.00  0.00     0.374 C 
ENDBRANCH   9  10
ENDBRANCH   8   9
ENDBRANCH   7   8
ENDBRANCH   3   7
BRANCH   4  18
HETATM   18  C   UNL     1      -0.329  -4.148  -1.340  1.00  0.00     0.108 A 
HETATM   19  C   UNL     1      -1.046  -5.328  -1.194  1.00  0.00     0.049 A 
HETATM   20  C   UNL     1      -2.423  -5.310  -1.394  1.00  0.00     0.005 A 
HETATM   21  C   UNL     1      -3.049  -4.116  -1.723  1.00  0.00     0.017 A 
HETATM   22  C   UNL     1      -2.264  -2.985  -1.847  1.00  0.00     0.089 A 
HETATM   23  N   UNL     1      -0.926  -2.979  -1.669  1.00  0.00    -0.352 N 
ATOM     24  HN  UNL     1      -0.383  -2.122  -1.779  1.00  0.00     0.166 HD
ENDBRANCH   4  18
TORSDOF 5
