REMARK  5 active torsions:
REMARK  status: ('A' for Active; 'I' for Inactive)
REMARK    1  A    between atoms: C_2  and  C_3 
REMARK    2  A    between atoms: C_2  and  N_10 
REMARK    3  A    between atoms: C_3  and  N_4 
REMARK       I    between atoms: N_10  and  C_11 
REMARK    4  A    between atoms: C_11  and  C_13 
REMARK    5  A    between atoms: C_13  and  C_14 
ROOT
HETATM    1  N   UNL     1       3.350  -0.456  -1.639  1.00  0.00    -0.355 N 
HETATM    2  C   UNL     1       2.829  -0.712  -2.887  1.00  0.00     0.222 C 
HETATM    3  O   UNL     1       1.630  -0.730  -3.150  1.00  0.00    -0.273 OA
HETATM    4  H   UNL     1       4.346  -0.601  -1.493  1.00  0.00     0.162 HD
ENDROOT
BRANCH   2   5
HETATM    5  C   UNL     1       3.858  -0.935  -3.983  1.00  0.00     0.149 C 
BRANCH   5   6
HETATM    6  C   UNL     1       4.392   0.372  -4.478  1.00  0.00     0.041 A 
HETATM    7  C   UNL     1       3.734   1.337  -5.155  1.00  0.00     0.018 A 
HETATM    8  C   UNL     1       2.269   1.276  -5.518  1.00  0.00     0.069 C 
HETATM    9  N   UNL     1       4.321   2.508  -5.587  1.00  0.00    -0.349 N 
HETATM   10  C   UNL     1       5.576   2.687  -5.343  1.00  0.00     0.080 A 
ATOM     11  HN  UNL     1       3.778   3.213  -6.086  1.00  0.00     0.167 HD
HETATM   12  C   UNL     1       6.281   3.930  -5.790  1.00  0.00     0.089 C 
HETATM   13  N   UNL     1       6.340   1.777  -4.679  1.00  0.00    -0.313 N 
HETATM   14  C   UNL     1       5.821   0.627  -4.176  1.00  0.00     0.255 A 
HETATM   15  H   UNL     1       7.313   1.957  -4.477  1.00  0.00     0.170 HD
HETATM   16  O   UNL     1       6.503  -0.142  -3.507  1.00  0.00    -0.268 OA
ENDBRANCH   5   6
ENDBRANCH   2   5
BRANCH   1  17
HETATM   17  C   UNL     1       2.591  -0.083  -0.439  1.00  0.00     0.108 C 
HETATM   18  C   UNL     1       1.081   0.090  -0.642  1.00  0.00     0.034 C 
BRANCH  17  19
HETATM   19  C   UNL     1       2.847  -1.082   0.724  1.00  0.00     0.296 C 
BRANCH  19  20
HETATM   20  N   UNL     1       4.257  -1.288   1.133  1.00  0.00     0.090 N 
HETATM   21  C   UNL     1       4.345  -2.271   2.232  1.00  0.00     0.272 C 
HETATM   22  C   UNL     1       3.825  -1.753   3.579  1.00  0.00     0.030 C 
HETATM   23  C   UNL     1       4.472  -0.431   3.980  1.00  0.00     0.003 C 
HETATM   24  C   UNL     1       4.533   0.567   2.826  1.00  0.00     0.030 C 
HETATM   25  C   UNL     1       4.990  -0.074   1.515  1.00  0.00     0.272 C 
ENDBRANCH  19  20
ENDBRANCH  17  19
ENDBRANCH   1  17
TORSDOF 5
