REMARK  5 active torsions:
REMARK  status: ('A' for Active; 'I' for Inactive)
REMARK    1  A    between atoms: C_2  and  C_5 
REMARK    2  A    between atoms: C_10  and  N_11 
REMARK       I    between atoms: N_11  and  C_12 
REMARK    3  A    between atoms: C_12  and  C_14 
REMARK    4  A    between atoms: C_14  and  O_15 
REMARK    5  A    between atoms: O_15  and  C_16 
ROOT
HETATM    1  C   UNL     1       3.110   0.013   1.263  1.00  0.00     0.065 A 
HETATM    2  C   UNL     1       4.299   0.572   0.982  1.00  0.00     0.107 A 
HETATM    3  N   UNL     1       5.474  -0.034   1.358  1.00  0.00    -0.331 N 
HETATM    4  C   UNL     1       5.533  -1.242   2.018  1.00  0.00     0.272 A 
HETATM    5  O   UNL     1       6.594  -1.770   2.346  1.00  0.00    -0.266 OA
HETATM    6  C   UNL     1       4.214  -1.911   2.302  1.00  0.00     0.104 A 
HETATM    7  C   UNL     1       3.089  -1.259   1.965  1.00  0.00     0.052 A 
HETATM    8  H   UNL     1       6.364   0.395   1.138  1.00  0.00     0.168 HD
ENDROOT
BRANCH   6   9
HETATM    9  N   UNL     1       4.274  -3.162   2.881  1.00  0.00    -0.321 N 
HETATM   10  C   UNL     1       3.256  -4.105   2.902  1.00  0.00     0.246 C 
HETATM   11  O   UNL     1       2.137  -3.937   2.422  1.00  0.00    -0.271 OA
HETATM   12  H   UNL     1       5.218  -3.458   3.122  1.00  0.00     0.169 HD
BRANCH  10  13
HETATM   13  C   UNL     1       3.654  -5.416   3.581  1.00  0.00     0.271 C 
BRANCH  13  14
HETATM   14  O   UNL     1       3.150  -6.533   2.858  1.00  0.00    -0.377 OA
BRANCH  14  15
HETATM   15  C   UNL     1       3.289  -7.781   3.542  1.00  0.00     0.122 C 
HETATM   16  C   UNL     1       4.758  -8.217   3.614  1.00  0.00     0.032 C 
HETATM   17  C   UNL     1       5.332  -8.473   2.221  1.00  0.00     0.002 C 
HETATM   18  C   UNL     1       4.525  -9.545   1.498  1.00  0.00     0.000 C 
HETATM   19  C   UNL     1       3.050  -9.164   1.408  1.00  0.00     0.002 C 
HETATM   20  C   UNL     1       2.461  -8.827   2.780  1.00  0.00     0.032 C 
ENDBRANCH  14  15
ENDBRANCH  13  14
ENDBRANCH  10  13
ENDBRANCH   6   9
BRANCH   1  21
HETATM   21  C   UNL     1       1.802   0.626   0.841  1.00  0.00     0.418 C 
HETATM   22  F   UNL     1       0.718  -0.098   1.218  1.00  0.00    -0.166 F 
HETATM   23  F   UNL     1       1.732   0.763  -0.508  1.00  0.00    -0.166 F 
HETATM   24  F   UNL     1       1.643   1.867   1.369  1.00  0.00    -0.166 F 
ENDBRANCH   1  21
TORSDOF 5
