REMARK  5 active torsions:
REMARK  status: ('A' for Active; 'I' for Inactive)
REMARK    1  A    between atoms: N_6  and  C_7 
REMARK    2  A    between atoms: C_7  and  C_8 
REMARK    3  A    between atoms: C_8  and  N_9 
REMARK    4  A    between atoms: N_9  and  C_10 
REMARK    5  A    between atoms: C_10  and  C_11 
ROOT
HETATM    1  C   UNL     1       5.006  -3.240   0.119  1.00  0.00     0.291 C 
ENDROOT
BRANCH   1   2
HETATM    2  C   UNL     1       3.843  -3.495   1.090  1.00  0.00     0.178 C 
BRANCH   2   3
HETATM    3  N   UNL     1       4.209  -3.357   2.484  1.00  0.00    -0.302 N 
HETATM    4  N   UNL     1       4.141  -4.418   3.312  1.00  0.00    -0.310 N 
HETATM    5  C   UNL     1       4.541  -3.924   4.487  1.00  0.00     0.115 A 
ATOM      6  HN  UNL     1       3.853  -5.372   3.094  1.00  0.00     0.186 HD
HETATM    7  C   UNL     1       4.851  -2.548   4.422  1.00  0.00    -0.028 A 
HETATM    8  C   UNL     1       5.318  -1.663   5.511  1.00  0.00     0.051 C 
HETATM    9  C   UNL     1       4.614  -2.212   3.107  1.00  0.00     0.118 A 
ENDBRANCH   2   3
ENDBRANCH   1   2
BRANCH   1  10
HETATM   10  N   UNL     1       6.217  -4.053   0.266  1.00  0.00     0.087 N 
HETATM   11  H   UNL     1       6.655  -3.889   1.178  1.00  0.00     0.316 HD
BRANCH  10  12
HETATM   12  C   UNL     1       5.964  -5.495   0.153  1.00  0.00     0.301 C 
BRANCH  12  13
HETATM   13  C   UNL     1       7.273  -6.310   0.294  1.00  0.00     0.149 C 
HETATM   14  C   UNL     1       7.023  -7.814   0.125  1.00  0.00     0.034 C 
HETATM   15  C   UNL     1       6.390  -8.433   1.366  1.00  0.00     0.004 C 
HETATM   16  C   UNL     1       7.228  -8.090   2.588  1.00  0.00     0.026 C 
HETATM   17  C   UNL     1       7.400  -6.582   2.698  1.00  0.00     0.168 C 
HETATM   18  O   UNL     1       7.980  -6.035   1.516  1.00  0.00    -0.384 OA
ENDBRANCH  12  13
ENDBRANCH  10  12
ENDBRANCH   1  10
TORSDOF 5
