REMARK  8 active torsions:
REMARK  status: ('A' for Active; 'I' for Inactive)
REMARK    1  A    between atoms: N_2  and  C_13 
REMARK    2  A    between atoms: C_6  and  N_14 
REMARK    3  A    between atoms: C_13  and  C_15 
REMARK    4  A    between atoms: N_14  and  C_19 
REMARK    5  A    between atoms: C_15  and  C_23 
REMARK    6  A    between atoms: C_17  and  C_19 
REMARK    7  A    between atoms: C_17  and  C_18 
REMARK    8  A    between atoms: C_23  and  O_24 
ROOT
HETATM    1  C   UNL     1       0.370  -0.678  -0.157  1.00  0.00     0.122 A 
HETATM    2  N   UNL     1       1.427   1.271  -0.022  1.00  0.00    -0.326 N 
HETATM    3  C   UNL     1       0.173   0.693  -0.003  1.00  0.00     0.140 A 
HETATM    4  N   UNL     1       1.734  -0.922  -0.256  1.00  0.00    -0.346 N 
ATOM      5  HN  UNL     1       2.185  -1.827  -0.391  1.00  0.00     0.167 HD
HETATM    6  C   UNL     1      -0.782  -1.540  -0.203  1.00  0.00     0.135 A 
HETATM    7  C   UNL     1       2.327   0.246  -0.141  1.00  0.00     0.185 A 
HETATM    8  N   UNL     1      -1.003   1.328   0.091  1.00  0.00    -0.336 N 
ATOM      9  HN  UNL     1      -1.111   2.337   0.196  1.00  0.00     0.168 HD
HETATM   10  N   UNL     1      -1.989  -0.901  -0.117  1.00  0.00    -0.337 N 
ATOM     11  HN  UNL     1      -2.856  -1.436  -0.162  1.00  0.00     0.168 HD
HETATM   12  C   UNL     1      -2.026   0.448   0.028  1.00  0.00     0.183 A 
ENDROOT
BRANCH   6  13
HETATM   13  N   UNL     1      -0.776  -2.930  -0.332  1.00  0.00    -0.370 N 
HETATM   14  C   UNL     1       0.453  -3.687  -0.123  1.00  0.00     0.151 C 
BRANCH  13  15
HETATM   15  C   UNL     1      -2.016  -3.718  -0.593  1.00  0.00     0.126 C 
BRANCH  15  16
HETATM   16  C   UNL     1      -2.436  -4.524   0.649  1.00  0.00     0.055 C 
BRANCH  16  17
HETATM   17  C   UNL     1      -3.662  -5.490   0.655  1.00  0.00     0.224 C 
HETATM   18  N   UNL     1      -3.529  -6.716  -0.172  1.00  0.00     0.088 N 
HETATM   19  C   UNL     1      -4.246  -7.848   0.443  1.00  0.00     0.310 C 
HETATM   20  C   UNL     1      -3.979  -6.539  -1.561  1.00  0.00     0.272 C 
HETATM   21  C   UNL     1      -5.365  -5.913  -1.708  1.00  0.00     0.030 C 
HETATM   22  C   UNL     1      -5.468  -4.609  -0.930  1.00  0.00     0.004 C 
HETATM   23  C   UNL     1      -5.027  -4.800   0.513  1.00  0.00     0.036 C 
ENDBRANCH  16  17
ENDBRANCH  15  16
ENDBRANCH  13  15
ENDBRANCH   6  13
BRANCH   2  24
HETATM   24  C   UNL     1       1.767   2.702   0.049  1.00  0.00     0.143 C 
BRANCH  24  25
HETATM   25  C   UNL     1       1.884   3.433  -1.340  1.00  0.00     0.001 C 
HETATM   26  C   UNL     1       3.121   2.914  -2.116  1.00  0.00     0.039 C 
HETATM   27  C   UNL     1       4.422   3.482  -1.541  1.00  0.00     0.168 C 
HETATM   28  O   UNL     1       4.433   4.895  -1.700  1.00  0.00    -0.391 OA
HETATM   29  C   UNL     1       3.425   5.527  -0.920  1.00  0.00     0.168 C 
HETATM   30  C   UNL     1       2.036   4.990  -1.242  1.00  0.00     0.039 C 
BRANCH  25  31
HETATM   31  C   UNL     1       0.564   3.206  -2.119  1.00  0.00     0.175 C 
BRANCH  31  32
HETATM   32  O   UNL     1      -0.535   3.742  -1.379  1.00  0.00    -0.400 OA
HETATM   33  H   UNL     1      -0.831   3.055  -0.744  1.00  0.00     0.209 HD
ENDBRANCH  31  32
ENDBRANCH  25  31
ENDBRANCH  24  25
ENDBRANCH   2  24
TORSDOF 8
