REMARK  3 active torsions:
REMARK  status: ('A' for Active; 'I' for Inactive)
REMARK    1  A    between atoms: C_1  and  N_3 
REMARK    2  A    between atoms: C_14  and  O_17 
REMARK    3  A    between atoms: C_14  and  C_18 
ROOT
HETATM    1  C   UNL     1       0.897  -1.549  -0.083  1.00  0.00     0.097 A 
HETATM    2  C   UNL     1       0.025  -0.799  -0.891  1.00  0.00     0.048 A 
HETATM    3  C   UNL     1       0.152   0.578  -0.857  1.00  0.00     0.119 A 
HETATM    4  N   UNL     1       1.781  -0.871   0.692  1.00  0.00    -0.342 N 
ATOM      5  HN  UNL     1       2.412  -1.368   1.321  1.00  0.00     0.167 HD
HETATM    6  N   UNL     1       1.031   1.288  -0.138  1.00  0.00    -0.338 N 
ATOM      7  HN  UNL     1       1.104   2.305  -0.154  1.00  0.00     0.168 HD
HETATM    8  N   UNL     1      -0.798   1.112  -1.686  1.00  0.00    -0.351 N 
HETATM    9  C   UNL     1      -1.057  -1.091  -1.769  1.00  0.00     0.036 A 
HETATM   10  C   UNL     1       1.806   0.477   0.610  1.00  0.00     0.183 A 
HETATM   11  C   UNL     1      -1.546   0.105  -2.245  1.00  0.00     0.091 A 
HETATM   12  H   UNL     1      -0.926   2.101  -1.831  1.00  0.00     0.166 HD
ENDROOT
BRANCH   1  13
HETATM   13  N   UNL     1       0.798  -2.927  -0.039  1.00  0.00    -0.266 NA
HETATM   14  C   UNL     1       1.252  -3.637   1.153  1.00  0.00     0.134 C 
HETATM   15  C   UNL     1       1.299  -5.128   0.690  1.00  0.00     0.071 C 
HETATM   16  C   UNL     1       1.030  -5.075  -0.826  1.00  0.00     0.054 C 
HETATM   17  C   UNL     1       1.337  -3.630  -1.195  1.00  0.00     0.100 C 
BRANCH  15  18
HETATM   18  O   UNL     1       2.612  -5.671   0.878  1.00  0.00    -0.389 OA
HETATM   19  H   UNL     1       2.803  -5.658   1.833  1.00  0.00     0.210 HD
ENDBRANCH  15  18
BRANCH  15  20
HETATM   20  C   UNL     1       0.269  -5.990   1.440  1.00  0.00     0.034 C 
HETATM   21  C   UNL     1       0.253  -7.450   1.006  1.00  0.00     0.008 C 
ENDBRANCH  15  20
ENDBRANCH   1  13
TORSDOF 3
