REMARK  7 active torsions:
REMARK  status: ('A' for Active; 'I' for Inactive)
REMARK    1  A    between atoms: O_2  and  C_3 
REMARK    2  A    between atoms: C_3  and  C_4 
REMARK    3  A    between atoms: C_4  and  N_5 
REMARK    4  A    between atoms: C_6  and  N_7 
REMARK       I    between atoms: N_7  and  C_8 
REMARK    5  A    between atoms: C_11  and  N_12 
REMARK    6  A    between atoms: N_12  and  C_13 
REMARK    7  A    between atoms: C_13  and  C_14 
ROOT
HETATM    1  N   UNL     1       4.797  -1.499   2.241  1.00  0.00    -0.281 N 
HETATM    2  C   UNL     1       4.656  -2.869   1.995  1.00  0.00     0.141 C 
HETATM    3  C   UNL     1       4.965  -3.796   2.940  1.00  0.00     0.122 C 
HETATM    4  C   UNL     1       5.473  -3.255   4.244  1.00  0.00     0.274 C 
HETATM    5  O   UNL     1       5.487  -3.925   5.275  1.00  0.00    -0.266 OA
HETATM    6  N   UNL     1       5.887  -1.963   4.254  1.00  0.00    -0.274 N 
HETATM    7  C   UNL     1       5.388  -1.029   3.407  1.00  0.00     0.331 C 
HETATM    8  O   UNL     1       5.472   0.160   3.708  1.00  0.00    -0.246 OA
HETATM    9  H   UNL     1       6.193  -1.607   5.146  1.00  0.00     0.173 HD
ENDROOT
BRANCH   3  10
HETATM   10  N   UNL     1       4.616  -5.166   2.897  1.00  0.00    -0.281 NA
HETATM   11  H   UNL     1       4.122  -5.389   3.764  1.00  0.00     0.128 HD
BRANCH  10  12
HETATM   12  C   UNL     1       5.658  -6.193   2.718  1.00  0.00     0.131 C 
BRANCH  12  13
HETATM   13  C   UNL     1       5.847  -7.023   3.972  1.00  0.00    -0.045 A 
HETATM   14  C   UNL     1       5.037  -8.140   4.227  1.00  0.00     0.008 A 
HETATM   15  C   UNL     1       5.202  -8.890   5.395  1.00  0.00     0.001 A 
HETATM   16  C   UNL     1       6.174  -8.530   6.326  1.00  0.00     0.000 A 
HETATM   17  C   UNL     1       6.987  -7.425   6.085  1.00  0.00     0.001 A 
HETATM   18  C   UNL     1       6.826  -6.679   4.915  1.00  0.00     0.008 A 
ENDBRANCH  12  13
ENDBRANCH  10  12
ENDBRANCH   3  10
BRANCH   2  19
HETATM   19  N   UNL     1       4.047  -3.268   0.824  1.00  0.00    -0.312 N 
HETATM   20  C   UNL     1       4.487  -4.273  -0.016  1.00  0.00     0.219 C 
HETATM   21  O   UNL     1       5.572  -4.841   0.049  1.00  0.00    -0.274 OA
HETATM   22  C   UNL     1       3.530  -4.528  -1.152  1.00  0.00     0.117 C 
HETATM   23  H   UNL     1       3.305  -2.681   0.468  1.00  0.00     0.170 HD
ENDBRANCH   2  19
BRANCH   1  24
HETATM   24  C   UNL     1       4.350  -0.463   1.298  1.00  0.00     0.162 C 
BRANCH  24  25
HETATM   25  C   UNL     1       5.487   0.347   0.661  1.00  0.00     0.187 C 
BRANCH  25  26
HETATM   26  O   UNL     1       4.910   1.305  -0.234  1.00  0.00    -0.394 OA
HETATM   27  C   UNL     1       5.901   2.160  -0.792  1.00  0.00     0.201 C 
ENDBRANCH  25  26
ENDBRANCH  24  25
ENDBRANCH   1  24
TORSDOF 7
