REMARK  7 active torsions:
REMARK  status: ('A' for Active; 'I' for Inactive)
REMARK    1  A    between atoms: O_2  and  C_3 
REMARK    2  A    between atoms: C_3  and  C_4 
REMARK    3  A    between atoms: C_4  and  N_5 
REMARK    4  A    between atoms: C_8  and  C_13 
REMARK       I    between atoms: C_13  and  N_15 
REMARK    5  A    between atoms: N_15  and  C_16 
REMARK    6  A    between atoms: C_16  and  C_17 
REMARK    7  A    between atoms: C_17  and  C_23 
REMARK       I    between atoms: C_23  and  N_25 
ROOT
HETATM    1  C   UNL     1       5.246   3.882  -4.636  1.00  0.00     0.269 C 
HETATM    2  O   UNL     1       5.154   4.196  -5.814  1.00  0.00    -0.266 OA
HETATM    3  N   UNL     1       5.351   4.771  -3.592  1.00  0.00    -0.354 N 
HETATM    4  H   UNL     1       5.369   4.393  -2.644  1.00  0.00     0.162 HD
ENDROOT
BRANCH   1   5
HETATM    5  C   UNL     1       5.273   2.402  -4.235  1.00  0.00     0.116 A 
HETATM    6  N   UNL     1       5.364   2.086  -2.977  1.00  0.00    -0.290 N 
HETATM    7  N   UNL     1       5.410   0.735  -2.668  1.00  0.00    -0.255 N 
ATOM      8  HN  UNL     1       5.400   2.800  -2.250  1.00  0.00     0.187 HD
HETATM    9  C   UNL     1       5.395  -0.283  -3.616  1.00  0.00     0.262 A 
HETATM   10  C   UNL     1       5.282   0.141  -5.025  1.00  0.00     0.078 A 
HETATM   11  O   UNL     1       5.464  -1.484  -3.367  1.00  0.00    -0.267 OA
HETATM   12  C   UNL     1       5.201   1.432  -5.346  1.00  0.00     0.042 A 
BRANCH   7  13
HETATM   13  C   UNL     1       5.416   0.386  -1.248  1.00  0.00     0.178 C 
BRANCH  13  14
HETATM   14  C   UNL     1       6.722  -0.262  -0.788  1.00  0.00     0.189 C 
BRANCH  14  15
HETATM   15  O   UNL     1       6.634  -0.567   0.608  1.00  0.00    -0.394 OA
HETATM   16  C   UNL     1       7.798  -1.245   1.064  1.00  0.00     0.201 C 
ENDBRANCH  14  15
ENDBRANCH  13  14
ENDBRANCH   7  13
ENDBRANCH   1   5
BRANCH   3  17
HETATM   17  C   UNL     1       5.258   6.209  -3.764  1.00  0.00     0.142 C 
BRANCH  17  18
HETATM   18  C   UNL     1       6.547   6.990  -3.377  1.00  0.00     0.060 C 
HETATM   19  C   UNL     1       6.325   8.495  -3.683  1.00  0.00     0.047 C 
HETATM   20  C   UNL     1       6.353   8.789  -5.179  1.00  0.00     0.168 C 
HETATM   21  O   UNL     1       7.571   8.319  -5.749  1.00  0.00    -0.391 OA
HETATM   22  C   UNL     1       7.714   6.903  -5.638  1.00  0.00     0.168 C 
HETATM   23  C   UNL     1       7.777   6.495  -4.171  1.00  0.00     0.047 C 
BRANCH  18  24
HETATM   24  C   UNL     1       6.791   6.823  -1.868  1.00  0.00     0.226 C 
HETATM   25  O   UNL     1       6.074   6.147  -1.133  1.00  0.00    -0.273 OA
HETATM   26  N   UNL     1       7.863   7.471  -1.330  1.00  0.00    -0.369 N 
HETATM   27  H   UNL     1       8.509   8.038  -1.861  1.00  0.00     0.159 HD
HETATM   28  H   UNL     1       8.026   7.360  -0.338  1.00  0.00     0.159 HD
ENDBRANCH  18  24
ENDBRANCH  17  18
ENDBRANCH   3  17
TORSDOF 7
