REMARK  3 active torsions:
REMARK  status: ('A' for Active; 'I' for Inactive)
REMARK    1  A    between atoms: O_2  and  C_3 
REMARK    2  A    between atoms: C_10  and  N_11 
REMARK       I    between atoms: N_11  and  C_12 
REMARK       I    between atoms: C_12  and  N_14 
REMARK    3  A    between atoms: N_14  and  C_15 
ROOT
HETATM    1  C   UNL     1       3.399  -1.818   2.976  1.00  0.00     0.112 A 
HETATM    2  C   UNL     1       3.843  -0.771   3.790  1.00  0.00     0.042 A 
HETATM    3  C   UNL     1       4.005   0.512   3.266  1.00  0.00     0.027 A 
HETATM    4  C   UNL     1       3.719   0.723   1.933  1.00  0.00     0.007 A 
HETATM    5  C   UNL     1       3.864   2.060   1.279  1.00  0.00     0.068 C 
HETATM    6  N   UNL     1       3.259  -0.265   1.143  1.00  0.00    -0.344 N 
ATOM      7  HN  UNL     1       3.041  -0.076   0.165  1.00  0.00     0.167 HD
HETATM    8  C   UNL     1       3.086  -1.510   1.646  1.00  0.00     0.143 A 
ENDROOT
BRANCH   8   9
HETATM    9  N   UNL     1       2.610  -2.505   0.776  1.00  0.00    -0.292 N 
HETATM   10  C   UNL     1       2.487  -2.421  -0.594  1.00  0.00     0.322 C 
HETATM   11  O   UNL     1       2.077  -3.382  -1.243  1.00  0.00    -0.247 OA
HETATM   12  N   UNL     1       2.909  -1.244  -1.157  1.00  0.00    -0.338 N 
HETATM   13  H   UNL     1       3.217  -0.554  -0.477  1.00  0.00     0.164 HD
HETATM   14  H   UNL     1       2.391  -3.408   1.176  1.00  0.00     0.172 HD
BRANCH  12  15
HETATM   15  C   UNL     1       3.229  -1.012  -2.522  1.00  0.00     0.090 A 
HETATM   16  C   UNL     1       4.117   0.170  -2.856  1.00  0.00     0.032 A 
HETATM   17  C   UNL     1       2.687   0.154  -3.315  1.00  0.00     0.006 A 
HETATM   18  C   UNL     1       1.723   1.141  -2.752  1.00  0.00     0.012 C 
ENDBRANCH  12  15
ENDBRANCH   8   9
BRANCH   1  19
HETATM   19  O   UNL     1       3.263  -3.111   3.414  1.00  0.00    -0.352 OA
HETATM   20  C   UNL     1       4.206  -3.493   4.419  1.00  0.00     0.210 C 
ENDBRANCH   1  19
TORSDOF 3
