REMARK  6 active torsions:
REMARK  status: ('A' for Active; 'I' for Inactive)
REMARK    1  A    between atoms: C_2  and  N_3 
REMARK       I    between atoms: N_6  and  C_9 
REMARK    2  A    between atoms: C_9  and  C_11 
REMARK    3  A    between atoms: C_11  and  N_13 
REMARK    4  A    between atoms: N_13  and  C_14 
REMARK    5  A    between atoms: C_14  and  C_15 
REMARK    6  A    between atoms: C_15  and  N_16 
ROOT
HETATM    1  C   UNL     1       5.647  -4.368  -2.392  1.00  0.00     0.307 C 
HETATM    2  C   UNL     1       6.587  -4.762  -1.255  1.00  0.00     0.053 C 
ENDROOT
BRANCH   1   3
HETATM    3  C   UNL     1       4.198  -4.319  -1.844  1.00  0.00     0.253 C 
HETATM    4  N   UNL     1       3.707  -3.103  -1.402  1.00  0.00    -0.347 N 
HETATM    5  C   UNL     1       4.478  -1.868  -1.227  1.00  0.00     0.156 C 
HETATM    6  C   UNL     1       2.305  -2.999  -0.989  1.00  0.00     0.156 C 
HETATM    7  C   UNL     1       4.318  -1.322   0.209  1.00  0.00     0.292 C 
HETATM    8  N   UNL     1       2.913  -1.146   0.647  1.00  0.00     0.091 N 
HETATM    9  C   UNL     1       2.191  -2.424   0.436  1.00  0.00     0.292 C 
HETATM   10  O   UNL     1       3.521  -5.350  -1.810  1.00  0.00    -0.271 OA
BRANCH   8  11
HETATM   11  C   UNL     1       2.306   0.008  -0.036  1.00  0.00     0.268 C 
HETATM   12  C   UNL     1       0.881   0.320   0.403  1.00  0.00     0.037 C 
ENDBRANCH   8  11
ENDBRANCH   1   3
BRANCH   1  13
HETATM   13  N   UNL     1       5.769  -5.348  -3.502  1.00  0.00     0.098 N 
HETATM   14  H   UNL     1       5.429  -6.244  -3.134  1.00  0.00     0.317 HD
BRANCH  13  15
HETATM   15  C   UNL     1       4.918  -5.012  -4.664  1.00  0.00     0.292 C 
BRANCH  15  16
HETATM   16  C   UNL     1       5.243  -3.680  -5.346  1.00  0.00     0.178 C 
BRANCH  16  17
HETATM   17  N   UNL     1       4.343  -3.425  -6.456  1.00  0.00    -0.302 N 
HETATM   18  C   UNL     1       4.541  -3.757  -7.765  1.00  0.00     0.111 A 
HETATM   19  C   UNL     1       3.421  -3.329  -8.436  1.00  0.00     0.037 A 
HETATM   20  C   UNL     1       2.611  -2.742  -7.445  1.00  0.00     0.108 A 
HETATM   21  N   UNL     1       3.174  -2.792  -6.236  1.00  0.00    -0.310 N 
ATOM     22  HN  UNL     1       2.806  -2.435  -5.354  1.00  0.00     0.186 HD
ENDBRANCH  16  17
ENDBRANCH  15  16
ENDBRANCH  13  15
ENDBRANCH   1  13
TORSDOF 6
