REMARK  2 active torsions:
REMARK  status: ('A' for Active; 'I' for Inactive)
REMARK    1  A    between atoms: C_8  and  N_9 
REMARK       I    between atoms: N_9  and  C_10 
REMARK       I    between atoms: C_10  and  N_12 
REMARK    2  A    between atoms: N_12  and  C_13 
ROOT
HETATM    1  N   UNL     1       2.335  -3.635  -0.991  1.00  0.00    -0.306 N 
HETATM    2  C   UNL     1       0.984  -3.840  -1.148  1.00  0.00     0.321 C 
HETATM    3  O   UNL     1       0.439  -4.298  -2.147  1.00  0.00    -0.247 OA
HETATM    4  N   UNL     1       0.262  -3.446  -0.045  1.00  0.00    -0.338 N 
HETATM    5  H   UNL     1       2.679  -3.442  -0.060  1.00  0.00     0.171 HD
HETATM    6  H   UNL     1       0.753  -3.328   0.828  1.00  0.00     0.164 HD
ENDROOT
BRANCH   1   7
HETATM    7  C   UNL     1       3.322  -3.828  -1.989  1.00  0.00     0.077 A 
HETATM    8  C   UNL     1       4.662  -3.843  -1.605  1.00  0.00     0.158 A 
HETATM    9  F   UNL     1       5.006  -3.691  -0.318  1.00  0.00    -0.202 F 
HETATM   10  C   UNL     1       5.638  -4.036  -2.570  1.00  0.00     0.132 A 
HETATM   11  N   UNL     1       5.370  -4.198  -3.886  1.00  0.00    -0.372 N 
HETATM   12  C   UNL     1       4.067  -4.164  -4.240  1.00  0.00     0.090 A 
ATOM     13  HN  UNL     1       6.111  -4.338  -4.573  1.00  0.00     0.164 HD
HETATM   14  C   UNL     1       3.025  -3.983  -3.341  1.00  0.00     0.050 A 
ENDBRANCH   1   7
BRANCH   4  15
HETATM   15  C   UNL     1      -1.184  -3.645   0.013  1.00  0.00     0.092 C 
HETATM   16  C   UNL     1      -1.840  -2.501   0.814  1.00  0.00     0.026 C 
HETATM   17  C   UNL     1      -3.333  -2.730   1.089  1.00  0.00     0.004 C 
HETATM   18  C   UNL     1      -3.600  -4.101   1.714  1.00  0.00     0.032 C 
HETATM   19  C   UNL     1      -3.019  -5.163   0.802  1.00  0.00     0.127 C 
HETATM   20  O   UNL     1      -3.154  -6.503   1.276  1.00  0.00    -0.385 OA
HETATM   21  C   UNL     1      -1.521  -4.988   0.654  1.00  0.00     0.039 C 
HETATM   22  C   UNL     1      -2.134  -7.267   0.589  1.00  0.00     0.168 C 
HETATM   23  C   UNL     1      -1.191  -6.268  -0.084  1.00  0.00     0.035 C 
ENDBRANCH   4  15
TORSDOF 2
