REMARK  4 active torsions:
REMARK  status: ('A' for Active; 'I' for Inactive)
REMARK       I    between atoms: C_2  and  N_3 
REMARK    1  A    between atoms: C_2  and  C_13 
REMARK    2  A    between atoms: N_3  and  C_4 
REMARK    3  A    between atoms: C_4  and  C_5 
REMARK    4  A    between atoms: C_5  and  C_6 
ROOT
HETATM    1  O   UNL     1       1.064   0.531  -0.280  1.00  0.00    -0.273 OA
HETATM    2  C   UNL     1       2.205   0.136  -0.059  1.00  0.00     0.221 C 
HETATM    3  N   UNL     1       2.845   0.357   1.139  1.00  0.00    -0.360 N 
HETATM    4  H   UNL     1       3.731  -0.098   1.331  1.00  0.00     0.162 HD
ENDROOT
BRANCH   3   5
HETATM    5  C   UNL     1       2.227   1.114   2.213  1.00  0.00     0.130 C 
BRANCH   5   6
HETATM    6  C   UNL     1       1.365   0.239   3.113  1.00  0.00     0.098 C 
BRANCH   6   7
HETATM    7  C   UNL     1       2.181  -0.787   3.835  1.00  0.00     0.101 A 
HETATM    8  N   UNL     1       3.438  -0.667   4.155  1.00  0.00    -0.285 N 
HETATM    9  N   UNL     1       3.718  -1.838   4.807  1.00  0.00    -0.250 N 
ATOM     10  HN  UNL     1       4.065   0.114   3.965  1.00  0.00     0.188 HD
HETATM   11  C   UNL     1       2.590  -2.642   4.870  1.00  0.00     0.340 A 
HETATM   12  H   UNL     1       4.629  -2.055   5.189  1.00  0.00     0.192 HD
HETATM   13  O   UNL     1       2.492  -3.748   5.367  1.00  0.00    -0.245 OA
HETATM   14  N   UNL     1       1.608  -1.933   4.246  1.00  0.00    -0.296 N 
HETATM   15  H   UNL     1       0.667  -2.262   4.113  1.00  0.00     0.172 HD
ENDBRANCH   6   7
ENDBRANCH   5   6
ENDBRANCH   3   5
BRANCH   2  16
HETATM   16  C   UNL     1       3.014  -0.685  -1.063  1.00  0.00     0.078 C 
HETATM   17  C   UNL     1       2.652  -0.218  -2.482  1.00  0.00     0.014 C 
HETATM   18  C   UNL     1       3.604  -0.746  -3.550  1.00  0.00     0.001 C 
HETATM   19  C   UNL     1       3.213  -2.099  -4.131  1.00  0.00     0.000 C 
HETATM   20  C   UNL     1       2.688  -3.138  -3.146  1.00  0.00     0.000 C 
HETATM   21  C   UNL     1       3.388  -3.149  -1.790  1.00  0.00     0.001 C 
HETATM   22  C   UNL     1       2.765  -2.174  -0.788  1.00  0.00     0.014 C 
ENDBRANCH   2  16
TORSDOF 4
