REMARK  4 active torsions:
REMARK  status: ('A' for Active; 'I' for Inactive)
REMARK    1  A    between atoms: O_1  and  C_2 
REMARK    2  A    between atoms: C_2  and  C_3 
REMARK    3  A    between atoms: C_3  and  N_4 
REMARK       I    between atoms: N_4  and  C_5 
REMARK       I    between atoms: C_5  and  N_7 
REMARK    4  A    between atoms: N_7  and  C_8 
ROOT
HETATM    1  N   UNL     1       4.542   0.226   1.542  1.00  0.00    -0.340 N 
HETATM    2  C   UNL     1       5.123   0.694   2.701  1.00  0.00     0.320 C 
HETATM    3  O   UNL     1       4.494   1.293   3.565  1.00  0.00    -0.247 OA
HETATM    4  N   UNL     1       6.449   0.324   2.769  1.00  0.00    -0.309 N 
HETATM    5  H   UNL     1       5.134   0.232   0.724  1.00  0.00     0.164 HD
HETATM    6  H   UNL     1       6.646  -0.537   2.280  1.00  0.00     0.170 HD
ENDROOT
BRANCH   1   7
HETATM    7  C   UNL     1       3.114   0.400   1.347  1.00  0.00     0.162 C 
BRANCH   7   8
HETATM    8  C   UNL     1       2.617  -0.016  -0.056  1.00  0.00     0.074 C 
HETATM    9  C   UNL     1       1.076   0.003  -0.074  1.00  0.00     0.039 C 
HETATM   10  C   UNL     1       0.496  -0.274  -1.461  1.00  0.00     0.003 C 
HETATM   11  C   UNL     1       1.071   0.674  -2.507  1.00  0.00     0.000 C 
HETATM   12  C   UNL     1       2.592   0.618  -2.524  1.00  0.00     0.003 C 
HETATM   13  C   UNL     1       3.183   0.913  -1.145  1.00  0.00     0.039 C 
BRANCH   8  14
HETATM   14  O   UNL     1       3.065  -1.350  -0.342  1.00  0.00    -0.388 OA
HETATM   15  H   UNL     1       2.732  -1.933   0.363  1.00  0.00     0.210 HD
ENDBRANCH   8  14
ENDBRANCH   7   8
ENDBRANCH   1   7
BRANCH   4  16
HETATM   16  C   UNL     1       7.275   0.640   3.868  1.00  0.00     0.038 A 
HETATM   17  C   UNL     1       8.164  -0.326   4.328  1.00  0.00     0.046 A 
HETATM   18  C   UNL     1       8.925  -0.030   5.447  1.00  0.00     0.090 A 
HETATM   19  N   UNL     1       8.895   1.159   6.085  1.00  0.00    -0.375 N 
HETATM   20  C   UNL     1       8.050   2.089   5.591  1.00  0.00     0.090 A 
ATOM     21  HN  UNL     1       9.481   1.345   6.899  1.00  0.00     0.164 HD
HETATM   22  C   UNL     1       7.222   1.878   4.501  1.00  0.00     0.046 A 
ENDBRANCH   4  16
TORSDOF 4
