REMARK  2 active torsions:
REMARK  status: ('A' for Active; 'I' for Inactive)
REMARK       I    between atoms: N_8  and  C_9 
REMARK       I    between atoms: C_9  and  N_11 
REMARK    1  A    between atoms: N_11  and  C_12 
REMARK    2  A    between atoms: C_12  and  C_13 
ROOT
HETATM    1  C   UNL     1       5.748   6.019  -0.994  1.00  0.00     0.078 C 
HETATM    2  C   UNL     1       6.265   4.676  -0.635  1.00  0.00     0.066 A 
HETATM    3  N   UNL     1       7.508   4.430  -0.274  1.00  0.00    -0.296 N 
ATOM      4  HN  UNL     1       8.221   5.150  -0.155  1.00  0.00     0.187 HD
HETATM    5  N   UNL     1       7.729   3.089  -0.077  1.00  0.00    -0.279 N 
ATOM      6  HN  UNL     1       8.628   2.693   0.196  1.00  0.00     0.189 HD
HETATM    7  C   UNL     1       6.645   2.377  -0.282  1.00  0.00     0.169 A 
HETATM    8  N   UNL     1       6.510   1.020  -0.229  1.00  0.00    -0.288 N 
HETATM    9  C   UNL     1       7.545   0.142  -0.094  1.00  0.00     0.322 C 
HETATM   10  O   UNL     1       7.317  -1.064  -0.027  1.00  0.00    -0.247 OA
HETATM   11  N   UNL     1       8.805   0.662  -0.095  1.00  0.00    -0.342 N 
HETATM   12  S   UNL     1       5.258   3.277  -0.689  1.00  0.00    -0.038 SA
HETATM   13  H   UNL     1       5.591   0.615  -0.331  1.00  0.00     0.172 HD
HETATM   14  H   UNL     1       8.888   1.671  -0.009  1.00  0.00     0.164 HD
ENDROOT
BRANCH  11  15
HETATM   15  C   UNL     1       9.994  -0.154   0.011  1.00  0.00     0.131 C 
BRANCH  15  16
HETATM   16  C   UNL     1      11.296   0.644   0.014  1.00  0.00     0.029 C 
HETATM   17  C   UNL     1      11.441   1.662   1.132  1.00  0.00     0.034 C 
HETATM   18  C   UNL     1      12.321   2.749   0.536  1.00  0.00     0.168 C 
HETATM   19  O   UNL     1      12.555   2.415  -0.838  1.00  0.00    -0.391 OA
HETATM   20  C   UNL     1      11.544   1.478  -1.228  1.00  0.00     0.173 C 
ENDBRANCH  15  16
ENDBRANCH  11  15
TORSDOF 2
