REMARK  6 active torsions:
REMARK  status: ('A' for Active; 'I' for Inactive)
REMARK    1  A    between atoms: C_2  and  C_3 
REMARK    2  A    between atoms: C_2  and  N_5 
REMARK    3  A    between atoms: C_2  and  C_20 
REMARK    4  A    between atoms: C_3  and  O_4 
REMARK       I    between atoms: N_5  and  C_6 
REMARK       I    between atoms: C_6  and  N_8 
REMARK    5  A    between atoms: N_8  and  C_9 
REMARK    6  A    between atoms: C_13  and  C_17 
ROOT
HETATM    1  N   UNL     1       2.837  -1.409   0.663  1.00  0.00    -0.332 N 
HETATM    2  C   UNL     1       2.499  -1.731   1.955  1.00  0.00     0.321 C 
HETATM    3  O   UNL     1       1.782  -1.000   2.631  1.00  0.00    -0.247 OA
HETATM    4  N   UNL     1       3.008  -2.933   2.390  1.00  0.00    -0.306 N 
HETATM    5  H   UNL     1       3.672  -1.817   0.265  1.00  0.00     0.165 HD
HETATM    6  H   UNL     1       3.511  -3.501   1.725  1.00  0.00     0.171 HD
ENDROOT
BRANCH   4   7
HETATM    7  C   UNL     1       2.783  -3.462   3.691  1.00  0.00     0.067 A 
HETATM    8  C   UNL     1       2.078  -2.829   4.696  1.00  0.00     0.120 A 
HETATM    9  N   UNL     1       1.869  -3.337   5.931  1.00  0.00    -0.353 N 
HETATM   10  C   UNL     1       2.386  -4.545   6.202  1.00  0.00     0.085 A 
ATOM     11  HN  UNL     1       1.337  -2.821   6.632  1.00  0.00     0.166 HD
HETATM   12  N   UNL     1       3.096  -5.252   5.295  1.00  0.00    -0.353 N 
HETATM   13  C   UNL     1       3.272  -4.697   4.068  1.00  0.00     0.120 A 
ATOM     14  HN  UNL     1       3.485  -6.167   5.523  1.00  0.00     0.166 HD
BRANCH  10  15
HETATM   15  C   UNL     1       2.162  -5.072   7.596  1.00  0.00     0.053 A 
HETATM   16  C   UNL     1       1.991  -6.540   7.892  1.00  0.00     0.013 A 
HETATM   17  C   UNL     1       0.801  -5.629   7.960  1.00  0.00     0.013 A 
ENDBRANCH  10  15
ENDBRANCH   4   7
BRANCH   1  18
HETATM   18  C   UNL     1       2.415  -0.117   0.063  1.00  0.00     0.055 C 
HETATM   19  C   UNL     1       3.039   1.060   0.845  1.00  0.00     0.041 C 
BRANCH  18  20
HETATM   20  C   UNL     1       2.931  -0.058  -1.407  1.00  0.00     0.195 C 
BRANCH  20  21
HETATM   21  O   UNL     1       4.356  -0.152  -1.477  1.00  0.00    -0.398 OA
HETATM   22  H   UNL     1       4.709   0.739  -1.303  1.00  0.00     0.209 HD
ENDBRANCH  20  21
ENDBRANCH  18  20
BRANCH  18  23
HETATM   23  C   UNL     1       0.886  -0.099   0.014  1.00  0.00     0.015 A 
HETATM   24  C   UNL     1       0.098   1.090  -0.490  1.00  0.00     0.007 A 
HETATM   25  C   UNL     1       0.025   0.712   0.960  1.00  0.00     0.007 A 
ENDBRANCH  18  23
ENDBRANCH   1  18
TORSDOF 6
