REMARK  6 active torsions:
REMARK  status: ('A' for Active; 'I' for Inactive)
REMARK    1  A    between atoms: N_2  and  C_4 
REMARK    2  A    between atoms: C_4  and  C_5 
REMARK    3  A    between atoms: C_4  and  C_18 
REMARK    4  A    between atoms: C_5  and  N_6 
REMARK       I    between atoms: N_6  and  C_7 
REMARK    5  A    between atoms: C_7  and  C_9 
REMARK    6  A    between atoms: C_9  and  N_10 
ROOT
HETATM    1  N   UNL     1       2.575  -2.276  -3.075  1.00  0.00    -0.358 N 
HETATM    2  C   UNL     1       1.571  -3.104  -3.531  1.00  0.00     0.236 C 
HETATM    3  O   UNL     1       0.379  -2.952  -3.278  1.00  0.00    -0.272 OA
HETATM    4  H   UNL     1       3.395  -2.251  -3.675  1.00  0.00     0.162 HD
ENDROOT
BRANCH   1   5
HETATM    5  C   UNL     1       2.361  -1.130  -2.208  1.00  0.00     0.159 C 
BRANCH   5   6
HETATM    6  C   UNL     1       2.944  -1.188  -0.724  1.00  0.00     0.243 C 
BRANCH   6   7
HETATM    7  N   UNL     1       2.420   0.050  -0.009  1.00  0.00     0.086 N 
HETATM    8  C   UNL     1       0.950   0.084   0.088  1.00  0.00     0.310 C 
HETATM    9  C   UNL     1       2.941   0.298   1.334  1.00  0.00     0.310 C 
ENDBRANCH   6   7
BRANCH   6  10
HETATM   10  C   UNL     1       4.547  -1.347  -0.721  1.00  0.00     0.020 C 
HETATM   11  C   UNL     1       5.122  -2.537  -1.544  1.00  0.00     0.007 C 
HETATM   12  C   UNL     1       4.790  -3.905  -0.942  1.00  0.00     0.000 C 
HETATM   13  C   UNL     1       5.326  -4.024   0.482  1.00  0.00     0.000 C 
HETATM   14  C   UNL     1       4.883  -2.845   1.338  1.00  0.00     0.000 C 
HETATM   15  C   UNL     1       5.249  -1.529   0.656  1.00  0.00     0.007 C 
ENDBRANCH   6  10
ENDBRANCH   5   6
ENDBRANCH   1   5
BRANCH   2  16
HETATM   16  C   UNL     1       2.074  -4.246  -4.419  1.00  0.00     0.235 C 
BRANCH  16  17
HETATM   17  N   UNL     1       2.218  -3.868  -5.826  1.00  0.00    -0.301 N 
HETATM   18  C   UNL     1       1.140  -3.993  -6.678  1.00  0.00     0.102 A 
HETATM   19  C   UNL     1       1.243  -3.753  -7.986  1.00  0.00     0.092 A 
HETATM   20  C   UNL     1       2.551  -3.362  -8.542  1.00  0.00     0.250 A 
HETATM   21  O   UNL     1       2.707  -3.184  -9.749  1.00  0.00    -0.268 OA
HETATM   22  N   UNL     1       3.555  -3.213  -7.625  1.00  0.00    -0.275 N 
HETATM   23  C   UNL     1       3.452  -3.422  -6.274  1.00  0.00     0.329 A 
HETATM   24  H   UNL     1       4.455  -2.930  -7.979  1.00  0.00     0.173 HD
HETATM   25  O   UNL     1       4.407  -3.216  -5.526  1.00  0.00    -0.246 OA
ENDBRANCH  16  17
ENDBRANCH   2  16
TORSDOF 6
