REMARK  4 active torsions:
REMARK  status: ('A' for Active; 'I' for Inactive)
REMARK    1  A    between atoms: C_8  and  N_9 
REMARK       I    between atoms: N_9  and  C_10 
REMARK       I    between atoms: C_10  and  N_12 
REMARK    2  A    between atoms: N_12  and  C_13 
REMARK    3  A    between atoms: C_18  and  C_19 
REMARK    4  A    between atoms: C_19  and  O_20 
ROOT
HETATM    1  N   UNL     1       2.559  -3.900   0.711  1.00  0.00    -0.308 N 
HETATM    2  C   UNL     1       1.187  -3.937   0.885  1.00  0.00     0.321 C 
HETATM    3  O   UNL     1       0.601  -4.074   1.951  1.00  0.00    -0.247 OA
HETATM    4  N   UNL     1       0.490  -3.745  -0.292  1.00  0.00    -0.338 N 
HETATM    5  H   UNL     1       2.903  -4.002  -0.231  1.00  0.00     0.170 HD
HETATM    6  H   UNL     1       0.963  -3.996  -1.148  1.00  0.00     0.164 HD
ENDROOT
BRANCH   1   7
HETATM    7  C   UNL     1       3.520  -3.914   1.763  1.00  0.00     0.044 A 
HETATM    8  C   UNL     1       4.865  -4.226   1.500  1.00  0.00    -0.020 A 
HETATM    9  C   UNL     1       5.401  -4.574   0.144  1.00  0.00     0.052 C 
HETATM   10  C   UNL     1       5.748  -4.229   2.583  1.00  0.00     0.096 A 
HETATM   11  N   UNL     1       5.408  -3.948   3.858  1.00  0.00    -0.375 N 
HETATM   12  C   UNL     1       4.119  -3.637   4.075  1.00  0.00     0.090 A 
ATOM     13  HN  UNL     1       6.091  -3.970   4.615  1.00  0.00     0.164 HD
HETATM   14  C   UNL     1       3.161  -3.601   3.078  1.00  0.00     0.047 A 
ENDBRANCH   1   7
BRANCH   4  15
HETATM   15  C   UNL     1      -0.982  -3.831  -0.296  1.00  0.00     0.092 C 
HETATM   16  C   UNL     1      -1.446  -5.292  -0.429  1.00  0.00     0.026 C 
HETATM   17  C   UNL     1      -1.189  -5.864  -1.823  1.00  0.00     0.002 C 
HETATM   18  C   UNL     1      -1.751  -4.976  -2.931  1.00  0.00     0.001 C 
HETATM   19  C   UNL     1      -1.308  -3.520  -2.793  1.00  0.00     0.009 C 
HETATM   20  C   UNL     1      -1.647  -2.975  -1.398  1.00  0.00     0.032 C 
BRANCH  20  21
HETATM   21  C   UNL     1      -1.338  -1.480  -1.270  1.00  0.00     0.170 C 
BRANCH  21  22
HETATM   22  O   UNL     1       0.033  -1.200  -1.510  1.00  0.00    -0.400 OA
HETATM   23  H   UNL     1       0.527  -1.661  -0.806  1.00  0.00     0.209 HD
ENDBRANCH  21  22
ENDBRANCH  20  21
ENDBRANCH   4  15
TORSDOF 4
