REMARK  5 active torsions:
REMARK  status: ('A' for Active; 'I' for Inactive)
REMARK    1  A    between atoms: C_2  and  C_5 
REMARK       I    between atoms: C_5  and  N_7 
REMARK    2  A    between atoms: C_10  and  C_13 
REMARK       I    between atoms: C_13  and  N_15 
REMARK    3  A    between atoms: N_15  and  C_16 
REMARK    4  A    between atoms: C_16  and  C_17 
REMARK    5  A    between atoms: C_17  and  C_18 
ROOT
HETATM    1  C   UNL     1       8.173   0.862  -2.082  1.00  0.00     0.221 C 
HETATM    2  O   UNL     1       8.345  -0.150  -1.409  1.00  0.00    -0.273 OA
HETATM    3  N   UNL     1       8.996   1.957  -1.966  1.00  0.00    -0.360 N 
HETATM    4  H   UNL     1       9.042   2.597  -2.747  1.00  0.00     0.162 HD
ENDROOT
BRANCH   1   5
HETATM    5  C   UNL     1       7.063   0.987  -3.128  1.00  0.00     0.081 C 
HETATM    6  C   UNL     1       6.117   2.170  -2.875  1.00  0.00     0.034 C 
HETATM    7  C   UNL     1       5.204   1.947  -1.668  1.00  0.00     0.126 C 
HETATM    8  N   UNL     1       4.528   0.646  -1.714  1.00  0.00    -0.351 N 
HETATM    9  C   UNL     1       3.183   0.587  -1.365  1.00  0.00     0.227 C 
HETATM   10  C   UNL     1       5.434  -0.482  -1.894  1.00  0.00     0.126 C 
HETATM   11  O   UNL     1       2.520   1.631  -1.314  1.00  0.00    -0.273 OA
HETATM   12  C   UNL     1       6.247  -0.310  -3.175  1.00  0.00     0.034 C 
BRANCH   9  13
HETATM   13  C   UNL     1       2.502  -0.765  -0.998  1.00  0.00     0.030 C 
HETATM   14  C   UNL     1       1.043  -0.468  -0.562  1.00  0.00     0.025 C 
HETATM   15  C   UNL     1       3.197  -1.392   0.223  1.00  0.00     0.025 C 
HETATM   16  C   UNL     1       2.381  -1.738  -2.184  1.00  0.00     0.025 C 
ENDBRANCH   9  13
ENDBRANCH   1   5
BRANCH   3  17
HETATM   17  C   UNL     1      10.124   1.888  -1.046  1.00  0.00     0.128 C 
BRANCH  17  18
HETATM   18  C   UNL     1      10.953   3.162  -1.065  1.00  0.00     0.076 C 
BRANCH  18  19
HETATM   19  C   UNL     1      12.079   3.106  -0.068  1.00  0.00     0.010 A 
HETATM   20  C   UNL     1      11.890   3.549   1.239  1.00  0.00     0.025 A 
HETATM   21  C   UNL     1      12.966   3.514   2.121  1.00  0.00     0.003 A 
HETATM   22  C   UNL     1      14.192   3.030   1.682  1.00  0.00     0.017 A 
HETATM   23  C   UNL     1      14.288   2.588   0.374  1.00  0.00     0.088 A 
HETATM   24  N   UNL     1      13.262   2.614  -0.507  1.00  0.00    -0.369 N 
ATOM     25  HN  UNL     1      13.375   2.277  -1.463  1.00  0.00     0.165 HD
ENDBRANCH  18  19
ENDBRANCH  17  18
ENDBRANCH   3  17
TORSDOF 5
