REMARK  2 active torsions:
REMARK  status: ('A' for Active; 'I' for Inactive)
REMARK       I    between atoms: C_2  and  N_3 
REMARK       I    between atoms: C_2  and  N_13 
REMARK    1  A    between atoms: N_3  and  C_4 
REMARK    2  A    between atoms: N_13  and  C_14 
ROOT
HETATM    1  O   UNL     1       1.246  -0.500   0.262  1.00  0.00    -0.247 OA
HETATM    2  C   UNL     1       2.369  -0.063   0.024  1.00  0.00     0.322 C 
HETATM    3  N   UNL     1       2.921  -0.058  -1.219  1.00  0.00    -0.336 N 
HETATM    4  N   UNL     1       3.131   0.423   1.043  1.00  0.00    -0.289 N 
HETATM    5  H   UNL     1       3.900   0.209  -1.268  1.00  0.00     0.164 HD
HETATM    6  H   UNL     1       2.723   0.363   1.963  1.00  0.00     0.172 HD
ENDROOT
BRANCH   3   7
HETATM    7  C   UNL     1       2.325  -0.705  -2.375  1.00  0.00     0.121 C 
HETATM    8  C   UNL     1       2.834  -0.070  -3.679  1.00  0.00     0.057 C 
HETATM    9  C   UNL     1       3.332  -1.225  -4.546  1.00  0.00     0.275 C 
HETATM   10  N   UNL     1       2.682  -2.393  -3.966  1.00  0.00     0.095 N 
HETATM   11  C   UNL     1       3.269  -3.671  -4.343  1.00  0.00     0.273 C 
HETATM   12  C   UNL     1       2.743  -2.175  -2.512  1.00  0.00     0.245 C 
HETATM   13  C   UNL     1       2.490  -4.809  -3.670  1.00  0.00     0.030 C 
HETATM   14  C   UNL     1       2.362  -4.614  -2.156  1.00  0.00     0.004 C 
HETATM   15  C   UNL     1       1.860  -3.206  -1.814  1.00  0.00     0.038 C 
ENDBRANCH   3   7
BRANCH   4  16
HETATM   16  C   UNL     1       4.374   0.970   0.923  1.00  0.00     0.152 A 
HETATM   17  N   UNL     1       5.052   1.210  -0.175  1.00  0.00    -0.346 N 
HETATM   18  C   UNL     1       6.253   1.807   0.161  1.00  0.00     0.097 A 
ATOM     19  HN  UNL     1       4.743   0.992  -1.122  1.00  0.00     0.167 HD
HETATM   20  C   UNL     1       6.491   1.943   1.513  1.00  0.00     0.070 A 
HETATM   21  S   UNL     1       5.134   1.372   2.396  1.00  0.00    -0.064 SA
ENDBRANCH   4  16
TORSDOF 2
