REMARK  5 active torsions:
REMARK  status: ('A' for Active; 'I' for Inactive)
REMARK    1  A    between atoms: N_6  and  C_7 
REMARK    2  A    between atoms: C_7  and  C_8 
REMARK       I    between atoms: C_8  and  N_10 
REMARK    3  A    between atoms: N_10  and  C_11 
REMARK    4  A    between atoms: C_11  and  C_17 
REMARK    5  A    between atoms: C_17  and  O_19 
ROOT
HETATM    1  C   UNL     1       4.942  -3.361   0.382  1.00  0.00     0.238 C 
HETATM    2  O   UNL     1       3.806  -3.793   0.216  1.00  0.00    -0.272 OA
HETATM    3  N   UNL     1       6.059  -4.167   0.473  1.00  0.00    -0.341 N 
HETATM    4  H   UNL     1       6.918  -3.648   0.238  1.00  0.00     0.163 HD
ENDROOT
BRANCH   3   5
HETATM    5  C   UNL     1       6.111  -5.622   0.157  1.00  0.00     0.118 C 
HETATM    6  C   UNL     1       5.245  -6.474   1.113  1.00  0.00     0.042 C 
HETATM    7  C   UNL     1       5.327  -7.968   0.782  1.00  0.00     0.003 C 
HETATM    8  C   UNL     1       4.957  -8.257  -0.670  1.00  0.00     0.000 C 
HETATM    9  C   UNL     1       5.727  -7.390  -1.663  1.00  0.00     0.003 C 
HETATM   10  C   UNL     1       5.701  -5.902  -1.299  1.00  0.00     0.042 C 
BRANCH   5  11
HETATM   11  C   UNL     1       7.607  -5.955   0.432  1.00  0.00     0.169 C 
HETATM   12  O   UNL     1       8.321  -6.693  -0.228  1.00  0.00    -0.648 OA
BRANCH  11  13
HETATM   13  O   UNL     1       8.058  -5.374   1.580  1.00  0.00    -0.775 OA
HETATM   14  H   UNL     1       7.349  -4.837   1.991  1.00  0.00     0.167 HD
ENDBRANCH  11  13
ENDBRANCH   5  11
ENDBRANCH   3   5
BRANCH   1  15
HETATM   15  C   UNL     1       5.215  -1.885   0.622  1.00  0.00     0.250 C 
BRANCH  15  16
HETATM   16  N   UNL     1       6.208  -1.319  -0.280  1.00  0.00    -0.294 N 
HETATM   17  N   UNL     1       7.465  -1.821  -0.300  1.00  0.00    -0.309 N 
HETATM   18  C   UNL     1       8.127  -0.967  -1.090  1.00  0.00     0.115 A 
ATOM     19  HN  UNL     1       7.822  -2.651   0.173  1.00  0.00     0.186 HD
HETATM   20  C   UNL     1       7.309   0.079  -1.577  1.00  0.00    -0.028 A 
HETATM   21  C   UNL     1       7.686   1.228  -2.432  1.00  0.00     0.051 C 
HETATM   22  C   UNL     1       6.063  -0.194  -1.045  1.00  0.00     0.118 A 
ENDBRANCH  15  16
ENDBRANCH   1  15
TORSDOF 5
