REMARK  5 active torsions:
REMARK  status: ('A' for Active; 'I' for Inactive)
REMARK    1  A    between atoms: C_2  and  C_5 
REMARK    2  A    between atoms: C_10  and  N_11 
REMARK       I    between atoms: N_11  and  C_12 
REMARK       I    between atoms: C_12  and  N_14 
REMARK    3  A    between atoms: N_14  and  C_15 
REMARK    4  A    between atoms: C_15  and  C_16 
REMARK    5  A    between atoms: C_15  and  C_19 
ROOT
HETATM    1  N   UNL     1       3.165  -3.588  -3.223  1.00  0.00    -0.304 N 
HETATM    2  C   UNL     1       2.896  -4.609  -2.338  1.00  0.00     0.321 C 
HETATM    3  O   UNL     1       2.980  -4.504  -1.117  1.00  0.00    -0.247 OA
HETATM    4  N   UNL     1       2.504  -5.779  -2.930  1.00  0.00    -0.338 N 
HETATM    5  H   UNL     1       3.152  -3.790  -4.218  1.00  0.00     0.171 HD
HETATM    6  H   UNL     1       2.384  -5.838  -3.927  1.00  0.00     0.164 HD
ENDROOT
BRANCH   1   7
HETATM    7  C   UNL     1       3.475  -2.283  -2.891  1.00  0.00     0.105 A 
HETATM    8  C   UNL     1       3.750  -1.325  -4.029  1.00  0.00     0.272 A 
HETATM    9  N   UNL     1       4.057  -0.026  -3.675  1.00  0.00    -0.331 N 
HETATM   10  O   UNL     1       3.699  -1.693  -5.201  1.00  0.00    -0.266 OA
HETATM   11  C   UNL     1       4.088   0.434  -2.381  1.00  0.00     0.107 A 
HETATM   12  H   UNL     1       4.245   0.610  -4.442  1.00  0.00     0.168 HD
HETATM   13  C   UNL     1       3.828  -0.392  -1.353  1.00  0.00     0.065 A 
HETATM   14  C   UNL     1       3.539  -1.784  -1.647  1.00  0.00     0.052 A 
BRANCH  13  15
HETATM   15  C   UNL     1       3.796   0.058   0.082  1.00  0.00     0.418 C 
HETATM   16  F   UNL     1       3.471  -0.931   0.953  1.00  0.00    -0.166 F 
HETATM   17  F   UNL     1       2.885   1.049   0.268  1.00  0.00    -0.166 F 
HETATM   18  F   UNL     1       4.996   0.550   0.481  1.00  0.00    -0.166 F 
ENDBRANCH  13  15
ENDBRANCH   1   7
BRANCH   4  19
HETATM   19  C   UNL     1       2.055  -6.884  -2.100  1.00  0.00     0.094 C 
BRANCH  19  20
HETATM   20  C   UNL     1       0.654  -7.275  -2.495  1.00  0.00     0.009 A 
HETATM   21  C   UNL     1      -0.508  -6.327  -2.313  1.00  0.00     0.007 A 
HETATM   22  C   UNL     1      -0.369  -7.514  -1.406  1.00  0.00     0.007 A 
ENDBRANCH  19  20
BRANCH  19  23
HETATM   23  C   UNL     1       3.014  -8.039  -2.215  1.00  0.00     0.009 A 
HETATM   24  C   UNL     1       2.800  -9.276  -1.372  1.00  0.00     0.007 A 
HETATM   25  C   UNL     1       3.956  -8.365  -1.078  1.00  0.00     0.007 A 
ENDBRANCH  19  23
ENDBRANCH   4  19
TORSDOF 5
