REMARK  4 active torsions:
REMARK  status: ('A' for Active; 'I' for Inactive)
REMARK       I    between atoms: C_2  and  N_3 
REMARK       I    between atoms: C_2  and  N_17 
REMARK    1  A    between atoms: N_3  and  C_4 
REMARK    2  A    between atoms: C_4  and  C_5 
REMARK    3  A    between atoms: C_5  and  C_6 
REMARK    4  A    between atoms: N_17  and  C_18 
ROOT
HETATM    1  C   UNL     1       3.278   1.638   0.954  1.00  0.00     0.217 C 
HETATM    2  C   UNL     1       4.275   2.671   1.274  1.00  0.00    -0.098 C 
HETATM    3  C   UNL     1       5.080   3.520   1.541  1.00  0.00     0.014 C 
ENDROOT
BRANCH   1   4
HETATM    4  N   UNL     1       3.616   0.983  -0.287  1.00  0.00    -0.333 N 
HETATM    5  C   UNL     1       2.794   0.018  -0.807  1.00  0.00     0.316 C 
HETATM    6  O   UNL     1       1.818  -0.429  -0.223  1.00  0.00    -0.247 OA
HETATM    7  N   UNL     1       3.193  -0.388  -2.053  1.00  0.00    -0.343 N 
HETATM    8  H   UNL     1       4.092  -0.075  -2.390  1.00  0.00     0.164 HD
HETATM    9  H   UNL     1       4.277   1.438  -0.895  1.00  0.00     0.165 HD
BRANCH   7  10
HETATM   10  C   UNL     1       2.517  -1.455  -2.791  1.00  0.00     0.130 C 
BRANCH  10  11
HETATM   11  C   UNL     1       3.040  -2.836  -2.403  1.00  0.00     0.077 C 
BRANCH  11  12
HETATM   12  C   UNL     1       2.443  -4.007  -3.131  1.00  0.00     0.019 A 
HETATM   13  C   UNL     1       2.787  -5.319  -2.876  1.00  0.00     0.078 A 
HETATM   14  S   UNL     1       1.892  -6.374  -3.864  1.00  0.00    -0.064 SA
HETATM   15  C   UNL     1       1.114  -5.023  -4.630  1.00  0.00     0.146 A 
HETATM   16  N   UNL     1       1.495  -3.854  -4.140  1.00  0.00    -0.340 N 
HETATM   17  N   UNL     1       0.211  -5.186  -5.634  1.00  0.00    -0.361 N 
ATOM     18  HN  UNL     1       1.139  -2.954  -4.461  1.00  0.00     0.168 HD
HETATM   19  C   UNL     1      -0.416  -4.058  -6.303  1.00  0.00     0.125 C 
HETATM   20  C   UNL     1      -0.098  -6.439  -6.295  1.00  0.00     0.125 C 
HETATM   21  C   UNL     1      -0.960  -4.637  -7.616  1.00  0.00     0.021 C 
HETATM   22  C   UNL     1      -0.327  -6.016  -7.739  1.00  0.00     0.021 C 
ENDBRANCH  11  12
ENDBRANCH  10  11
ENDBRANCH   7  10
ENDBRANCH   1   4
TORSDOF 4
