REMARK  7 active torsions:
REMARK  status: ('A' for Active; 'I' for Inactive)
REMARK    1  A    between atoms: C_2  and  C_3 
REMARK    2  A    between atoms: C_2  and  N_11 
REMARK    3  A    between atoms: C_3  and  N_4 
REMARK    4  A    between atoms: N_11  and  C_12 
REMARK    5  A    between atoms: C_12  and  C_13 
REMARK    6  A    between atoms: C_13  and  C_14 
REMARK    7  A    between atoms: C_14  and  N_15 
ROOT
HETATM    1  N   UNL     1       2.979   0.231   1.448  1.00  0.00     0.089 N 
HETATM    2  H   UNL     1       2.567  -0.506   2.021  1.00  0.00     0.316 HD
ENDROOT
BRANCH   1   3
HETATM    3  C   UNL     1       2.444   0.113   0.068  1.00  0.00     0.236 C 
HETATM    4  C   UNL     1       0.913   0.157   0.168  1.00  0.00     0.044 C 
BRANCH   3   5
HETATM    5  C   UNL     1       2.963   1.225  -0.869  1.00  0.00     0.183 C 
BRANCH   5   6
HETATM    6  N   UNL     1       2.470   1.142  -2.230  1.00  0.00    -0.301 N 
HETATM    7  C   UNL     1       1.825   2.126  -2.922  1.00  0.00     0.118 A 
HETATM    8  C   UNL     1       1.642   1.648  -4.200  1.00  0.00    -0.028 A 
HETATM    9  C   UNL     1       1.009   2.328  -5.351  1.00  0.00     0.051 C 
HETATM   10  C   UNL     1       2.213   0.354  -4.169  1.00  0.00     0.115 A 
HETATM   11  N   UNL     1       2.727   0.051  -2.975  1.00  0.00    -0.310 N 
ATOM     12  HN  UNL     1       3.203  -0.806  -2.693  1.00  0.00     0.186 HD
ENDBRANCH   5   6
ENDBRANCH   3   5
ENDBRANCH   1   3
BRANCH   1  13
HETATM   13  C   UNL     1       4.439   0.105   1.502  1.00  0.00     0.272 C 
BRANCH  13  14
HETATM   14  C   UNL     1       4.938   0.167   2.945  1.00  0.00     0.050 C 
BRANCH  14  15
HETATM   15  C   UNL     1       6.471   0.109   2.980  1.00  0.00     0.127 C 
BRANCH  15  16
HETATM   16  N   UNL     1       6.986   0.175   4.335  1.00  0.00    -0.352 N 
HETATM   17  C   UNL     1       7.245   1.424   4.995  1.00  0.00     0.126 C 
HETATM   18  C   UNL     1       7.579   1.056   6.428  1.00  0.00     0.029 C 
HETATM   19  C   UNL     1       7.164  -0.399   6.598  1.00  0.00     0.104 C 
HETATM   20  C   UNL     1       6.937  -0.904   5.201  1.00  0.00     0.219 C 
HETATM   21  O   UNL     1       6.681  -2.061   4.905  1.00  0.00    -0.273 OA
ENDBRANCH  15  16
ENDBRANCH  14  15
ENDBRANCH  13  14
ENDBRANCH   1  13
TORSDOF 7
