REMARK  4 active torsions:
REMARK  status: ('A' for Active; 'I' for Inactive)
REMARK    1  A    between atoms: C_4  and  N_5 
REMARK       I    between atoms: N_5  and  C_6 
REMARK       I    between atoms: C_6  and  N_8 
REMARK    2  A    between atoms: N_8  and  C_9 
REMARK    3  A    between atoms: C_10  and  C_11 
REMARK    4  A    between atoms: C_11  and  O_12 
ROOT
HETATM    1  N   UNL     1       7.777   2.705  -2.239  1.00  0.00    -0.293 N 
HETATM    2  C   UNL     1       7.395   3.920  -1.763  1.00  0.00     0.322 C 
HETATM    3  O   UNL     1       7.290   4.861  -2.547  1.00  0.00    -0.247 OA
HETATM    4  N   UNL     1       7.056   4.003  -0.442  1.00  0.00    -0.337 N 
HETATM    5  H   UNL     1       7.888   2.685  -3.244  1.00  0.00     0.172 HD
HETATM    6  H   UNL     1       7.032   3.104   0.032  1.00  0.00     0.164 HD
ENDROOT
BRANCH   4   7
HETATM    7  C   UNL     1       6.180   5.037   0.057  1.00  0.00     0.096 C 
HETATM    8  C   UNL     1       6.806   6.441   0.288  1.00  0.00     0.036 C 
HETATM    9  C   UNL     1       6.220   6.833   1.684  1.00  0.00    -0.006 C 
HETATM   10  C   UNL     1       7.046   6.133   2.770  1.00  0.00     0.005 C 
HETATM   11  C   UNL     1       4.918   6.030   1.772  1.00  0.00     0.012 C 
HETATM   12  C   UNL     1       6.724   4.653   2.523  1.00  0.00     0.007 C 
HETATM   13  C   UNL     1       5.607   4.704   1.455  1.00  0.00     0.009 C 
BRANCH   8  14
HETATM   14  C   UNL     1       6.425   7.443  -0.802  1.00  0.00     0.171 C 
BRANCH  14  15
HETATM   15  O   UNL     1       7.035   8.709  -0.557  1.00  0.00    -0.400 OA
HETATM   16  H   UNL     1       6.559   9.133   0.174  1.00  0.00     0.209 HD
ENDBRANCH  14  15
ENDBRANCH   8  14
ENDBRANCH   4   7
BRANCH   1  17
HETATM   17  C   UNL     1       7.899   1.513  -1.558  1.00  0.00     0.132 A 
HETATM   18  C   UNL     1       8.004   0.244  -2.175  1.00  0.00     0.084 A 
HETATM   19  C   UNL     1       8.067  -0.643  -1.130  1.00  0.00     0.076 A 
HETATM   20  C   UNL     1       8.142  -2.110  -1.014  1.00  0.00     0.079 C 
HETATM   21  O   UNL     1       8.035   0.046   0.040  1.00  0.00    -0.241 OA
HETATM   22  N   UNL     1       7.901   1.392  -0.226  1.00  0.00    -0.245 N 
ATOM     23  HN  UNL     1       7.820   2.145   0.457  1.00  0.00     0.196 HD
ENDBRANCH   1  17
TORSDOF 4
