REMARK  3 active torsions:
REMARK  status: ('A' for Active; 'I' for Inactive)
REMARK    1  A    between atoms: C_2  and  N_3 
REMARK    2  A    between atoms: C_2  and  C_15 
REMARK       I    between atoms: N_3  and  C_4 
REMARK       I    between atoms: C_4  and  N_6 
REMARK    3  A    between atoms: N_6  and  C_7 
ROOT
HETATM    1  N   UNL     1       2.813  -1.561   0.230  1.00  0.00    -0.336 N 
HETATM    2  C   UNL     1       2.471  -1.911   1.499  1.00  0.00     0.322 C 
HETATM    3  O   UNL     1       1.904  -1.194   2.301  1.00  0.00    -0.247 OA
HETATM    4  N   UNL     1       2.802  -3.270   1.791  1.00  0.00    -0.293 N 
HETATM    5  H   UNL     1       3.547  -2.059  -0.254  1.00  0.00     0.164 HD
HETATM    6  H   UNL     1       3.104  -3.874   1.045  1.00  0.00     0.172 HD
ENDROOT
BRANCH   1   7
HETATM    7  C   UNL     1       2.506  -0.201  -0.246  1.00  0.00     0.111 C 
HETATM    8  C   UNL     1       2.258  -0.240  -1.754  1.00  0.00     0.035 C 
BRANCH   7   9
HETATM    9  C   UNL     1       3.598   0.815   0.171  1.00  0.00     0.143 C 
HETATM   10  C   UNL     1       3.245   2.278  -0.082  1.00  0.00     0.036 C 
HETATM   11  C   UNL     1       4.551   2.929  -0.488  1.00  0.00     0.029 C 
HETATM   12  C   UNL     1       5.563   1.803  -0.501  1.00  0.00     0.168 C 
HETATM   13  O   UNL     1       4.817   0.580  -0.554  1.00  0.00    -0.384 OA
ENDBRANCH   7   9
ENDBRANCH   1   7
BRANCH   4  14
HETATM   14  C   UNL     1       2.607  -3.818   3.067  1.00  0.00     0.127 A 
HETATM   15  C   UNL     1       2.420  -3.127   4.247  1.00  0.00     0.076 A 
HETATM   16  C   UNL     1       2.259  -4.101   5.252  1.00  0.00     0.025 A 
HETATM   17  C   UNL     1       1.988  -3.881   6.693  1.00  0.00     0.070 C 
HETATM   18  N   UNL     1       2.368  -5.336   4.756  1.00  0.00    -0.302 N 
HETATM   19  N   UNL     1       2.567  -5.147   3.435  1.00  0.00    -0.281 N 
ATOM     20  HN  UNL     1       2.313  -6.221   5.261  1.00  0.00     0.186 HD
HETATM   21  C   UNL     1       2.619  -6.316   2.590  1.00  0.00     0.179 C 
ENDBRANCH   4  14
TORSDOF 3
