REMARK  5 active torsions:
REMARK  status: ('A' for Active; 'I' for Inactive)
REMARK    1  A    between atoms: O_2  and  C_3 
REMARK    2  A    between atoms: C_6  and  N_7 
REMARK       I    between atoms: N_7  and  C_8 
REMARK       I    between atoms: C_8  and  N_10 
REMARK    3  A    between atoms: N_10  and  C_11 
REMARK    4  A    between atoms: C_15  and  C_16 
REMARK    5  A    between atoms: C_16  and  C_17 
ROOT
HETATM    1  N   UNL     1       5.085   5.183   1.311  1.00  0.00    -0.307 N 
HETATM    2  C   UNL     1       6.343   5.177   1.875  1.00  0.00     0.321 C 
HETATM    3  O   UNL     1       6.713   4.452   2.787  1.00  0.00    -0.247 OA
HETATM    4  N   UNL     1       7.195   6.067   1.247  1.00  0.00    -0.338 N 
HETATM    5  H   UNL     1       4.849   5.979   0.741  1.00  0.00     0.170 HD
HETATM    6  H   UNL     1       6.769   6.927   0.937  1.00  0.00     0.164 HD
ENDROOT
BRANCH   1   7
HETATM    7  C   UNL     1       4.058   4.245   1.590  1.00  0.00     0.058 A 
HETATM    8  C   UNL     1       4.340   2.983   2.125  1.00  0.00     0.036 A 
HETATM    9  C   UNL     1       3.314   2.077   2.387  1.00  0.00     0.058 A 
HETATM   10  C   UNL     1       2.022   2.452   2.085  1.00  0.00     0.141 A 
HETATM   11  N   UNL     1       1.705   3.643   1.540  1.00  0.00    -0.339 N 
HETATM   12  C   UNL     1       2.711   4.531   1.315  1.00  0.00     0.034 A 
ATOM     13  HN  UNL     1       0.740   3.872   1.303  1.00  0.00     0.168 HD
HETATM   14  C   UNL     1       2.238   5.849   0.778  1.00  0.00     0.070 C 
BRANCH  10  15
HETATM   15  O   UNL     1       1.025   1.551   2.392  1.00  0.00    -0.341 OA
HETATM   16  C   UNL     1      -0.272   2.016   2.032  1.00  0.00     0.211 C 
ENDBRANCH  10  15
ENDBRANCH   1   7
BRANCH   4  17
HETATM   17  C   UNL     1       8.618   6.130   1.616  1.00  0.00     0.090 C 
HETATM   18  C   UNL     1       9.351   7.211   0.814  1.00  0.00     0.051 C 
HETATM   19  C   UNL     1       9.539   6.796  -0.643  1.00  0.00     0.170 C 
HETATM   20  O   UNL     1      10.156   5.511  -0.755  1.00  0.00    -0.386 OA
HETATM   21  C   UNL     1       9.381   4.486  -0.111  1.00  0.00     0.123 C 
HETATM   22  C   UNL     1       9.338   4.793   1.385  1.00  0.00     0.057 C 
BRANCH  21  23
HETATM   23  C   UNL     1      10.015   3.122  -0.418  1.00  0.00     0.035 C 
BRANCH  23  24
HETATM   24  C   UNL     1       9.264   1.910   0.177  1.00  0.00    -0.020 C 
HETATM   25  C   UNL     1       7.804   1.844  -0.278  1.00  0.00     0.009 C 
HETATM   26  C   UNL     1       9.983   0.611  -0.188  1.00  0.00     0.009 C 
ENDBRANCH  23  24
ENDBRANCH  21  23
ENDBRANCH   4  17
TORSDOF 5
