REMARK  4 active torsions:
REMARK  status: ('A' for Active; 'I' for Inactive)
REMARK    1  A    between atoms: C_3  and  C_4 
REMARK    2  A    between atoms: C_4  and  N_5 
REMARK       I    between atoms: N_5  and  C_6 
REMARK       I    between atoms: C_6  and  N_8 
REMARK    3  A    between atoms: N_8  and  C_9 
REMARK    4  A    between atoms: C_13  and  C_17 
ROOT
HETATM    1  C   UNL     1       0.683  -1.636   2.020  1.00  0.00     0.112 C 
HETATM    2  C   UNL     1       2.066  -1.930   2.401  1.00  0.00    -0.109 C 
HETATM    3  C   UNL     1       3.184  -2.213   2.738  1.00  0.00    -0.087 C 
ENDROOT
BRANCH   3   4
HETATM    4  C   UNL     1       4.508  -2.647   3.188  1.00  0.00     0.218 C 
BRANCH   4   5
HETATM    5  N   UNL     1       5.529  -1.684   2.840  1.00  0.00    -0.332 N 
HETATM    6  C   UNL     1       6.818  -1.985   3.221  1.00  0.00     0.321 C 
HETATM    7  O   UNL     1       7.089  -3.005   3.842  1.00  0.00    -0.247 OA
HETATM    8  N   UNL     1       7.711  -1.000   2.868  1.00  0.00    -0.306 N 
HETATM    9  H   UNL     1       7.310  -0.094   2.660  1.00  0.00     0.171 HD
HETATM   10  H   UNL     1       5.428  -1.234   1.942  1.00  0.00     0.165 HD
BRANCH   8  11
HETATM   11  C   UNL     1       9.104  -1.067   3.106  1.00  0.00     0.067 A 
HETATM   12  C   UNL     1       9.800  -2.221   3.400  1.00  0.00     0.120 A 
HETATM   13  N   UNL     1      11.126  -2.264   3.656  1.00  0.00    -0.353 N 
HETATM   14  C   UNL     1      11.808  -1.104   3.616  1.00  0.00     0.085 A 
ATOM     15  HN  UNL     1      11.594  -3.144   3.872  1.00  0.00     0.166 HD
HETATM   16  N   UNL     1      11.225   0.075   3.309  1.00  0.00    -0.353 N 
HETATM   17  C   UNL     1       9.894   0.062   3.058  1.00  0.00     0.120 A 
ATOM     18  HN  UNL     1      11.765   0.940   3.268  1.00  0.00     0.166 HD
BRANCH  14  19
HETATM   19  C   UNL     1      13.276  -1.134   3.964  1.00  0.00     0.053 A 
HETATM   20  C   UNL     1      14.320  -0.737   2.947  1.00  0.00     0.013 A 
HETATM   21  C   UNL     1      14.178  -2.178   3.337  1.00  0.00     0.013 A 
ENDBRANCH  14  19
ENDBRANCH   8  11
ENDBRANCH   4   5
ENDBRANCH   3   4
TORSDOF 4
