REMARK  6 active torsions:
REMARK  status: ('A' for Active; 'I' for Inactive)
REMARK    1  A    between atoms: C_2  and  C_4 
REMARK    2  A    between atoms: C_4  and  C_5 
REMARK    3  A    between atoms: C_5  and  C_6 
REMARK    4  A    between atoms: C_6  and  N_8 
REMARK       I    between atoms: N_8  and  C_9 
REMARK    5  A    between atoms: C_9  and  C_11 
REMARK    6  A    between atoms: C_11  and  C_12 
ROOT
HETATM    1  C   UNL     1       8.653   0.640  -3.981  1.00  0.00     0.149 C 
ENDROOT
BRANCH   1   2
HETATM    2  C   UNL     1       7.140   0.646  -4.107  1.00  0.00     0.222 C 
HETATM    3  N   UNL     1       6.464   0.569  -2.906  1.00  0.00    -0.357 N 
HETATM    4  H   UNL     1       6.996   0.766  -2.059  1.00  0.00     0.162 HD
HETATM    5  O   UNL     1       6.581   0.734  -5.197  1.00  0.00    -0.273 OA
BRANCH   3   6
HETATM    6  C   UNL     1       5.008   0.662  -2.844  1.00  0.00     0.080 C 
HETATM    7  C   UNL     1       4.569   2.127  -2.880  1.00  0.00     0.032 C 
BRANCH   6   8
HETATM    8  C   UNL     1       4.497  -0.084  -1.599  1.00  0.00     0.025 C 
BRANCH   8   9
HETATM    9  C   UNL     1       2.968  -0.191  -1.546  1.00  0.00     0.006 C 
BRANCH   9  10
HETATM   10  C   UNL     1       2.432  -0.944  -0.313  1.00  0.00    -0.023 C 
HETATM   11  C   UNL     1       0.900  -0.943  -0.343  1.00  0.00     0.009 C 
HETATM   12  C   UNL     1       2.943  -2.382  -0.224  1.00  0.00     0.009 C 
ENDBRANCH   9  10
ENDBRANCH   8   9
ENDBRANCH   6   8
ENDBRANCH   3   6
ENDBRANCH   1   2
BRANCH   1  13
HETATM   13  C   UNL     1       9.123   2.061  -3.888  1.00  0.00     0.041 A 
HETATM   14  C   UNL     1       9.506   2.872  -4.895  1.00  0.00     0.018 A 
HETATM   15  C   UNL     1       9.497   2.457  -6.346  1.00  0.00     0.069 C 
HETATM   16  N   UNL     1       9.905   4.178  -4.715  1.00  0.00    -0.349 N 
HETATM   17  C   UNL     1       9.907   4.654  -3.516  1.00  0.00     0.080 A 
ATOM     18  HN  UNL     1      10.191   4.753  -5.508  1.00  0.00     0.167 HD
HETATM   19  C   UNL     1      10.299   6.077  -3.252  1.00  0.00     0.089 C 
HETATM   20  N   UNL     1       9.554   3.925  -2.422  1.00  0.00    -0.313 N 
HETATM   21  C   UNL     1       9.136   2.635  -2.521  1.00  0.00     0.255 A 
HETATM   22  H   UNL     1       9.556   4.331  -1.498  1.00  0.00     0.170 HD
HETATM   23  O   UNL     1       8.769   1.991  -1.540  1.00  0.00    -0.268 OA
ENDBRANCH   1  13
TORSDOF 6
