REMARK  6 active torsions:
REMARK  status: ('A' for Active; 'I' for Inactive)
REMARK    1  A    between atoms: C_2  and  C_3 
REMARK    2  A    between atoms: C_3  and  O_4 
REMARK    3  A    between atoms: C_3  and  C_10 
REMARK    4  A    between atoms: O_4  and  C_5 
REMARK       I    between atoms: C_10  and  N_12 
REMARK    5  A    between atoms: N_12  and  C_13 
REMARK    6  A    between atoms: C_19  and  O_20 
ROOT
HETATM    1  C   UNL     1       4.646  -1.273  -0.525  1.00  0.00     0.251 C 
HETATM    2  O   UNL     1       5.206  -0.208  -0.784  1.00  0.00    -0.270 OA
HETATM    3  N   UNL     1       5.303  -2.488  -0.472  1.00  0.00    -0.321 N 
HETATM    4  H   UNL     1       4.760  -3.341  -0.505  1.00  0.00     0.169 HD
ENDROOT
BRANCH   1   5
HETATM    5  C   UNL     1       3.127  -1.313  -0.233  1.00  0.00     0.213 C 
BRANCH   5   6
HETATM    6  C   UNL     1       2.687   0.115   0.164  1.00  0.00     0.037 C 
HETATM    7  C   UNL     1       3.296   0.594   1.483  1.00  0.00     0.008 C 
ENDBRANCH   5   6
BRANCH   5   8
HETATM    8  O   UNL     1       2.540  -1.799  -1.450  1.00  0.00    -0.371 OA
BRANCH   8   9
HETATM    9  C   UNL     1       1.128  -1.701  -1.598  1.00  0.00     0.122 C 
HETATM   10  C   UNL     1       0.345  -2.653  -0.684  1.00  0.00     0.032 C 
HETATM   11  C   UNL     1      -0.413  -3.602  -1.610  1.00  0.00     0.002 C 
HETATM   12  C   UNL     1      -0.574  -2.823  -2.902  1.00  0.00     0.002 C 
HETATM   13  C   UNL     1       0.760  -2.109  -3.031  1.00  0.00     0.032 C 
ENDBRANCH   8   9
ENDBRANCH   5   8
ENDBRANCH   1   5
BRANCH   3  14
HETATM   14  C   UNL     1       6.706  -2.645  -0.615  1.00  0.00     0.083 A 
HETATM   15  C   UNL     1       7.625  -1.597  -0.580  1.00  0.00     0.119 A 
HETATM   16  N   UNL     1       8.963  -1.735  -0.764  1.00  0.00    -0.373 N 
HETATM   17  C   UNL     1       9.417  -2.978  -0.999  1.00  0.00     0.090 A 
ATOM     18  HN  UNL     1       9.593  -0.934  -0.726  1.00  0.00     0.164 HD
HETATM   19  C   UNL     1       8.607  -4.100  -1.016  1.00  0.00     0.056 A 
HETATM   20  C   UNL     1       7.241  -3.921  -0.801  1.00  0.00     0.095 A 
BRANCH  20  21
HETATM   21  O   UNL     1       6.399  -5.004  -0.777  1.00  0.00    -0.358 OA
HETATM   22  H   UNL     1       6.943  -5.811  -0.783  1.00  0.00     0.217 HD
ENDBRANCH  20  21
ENDBRANCH   3  14
TORSDOF 6
