REMARK  11 active torsions:
REMARK  status: ('A' for Active; 'I' for Inactive)
REMARK    1  A    between atoms: N_2  and  C_9 
REMARK    2  A    between atoms: C_6  and  N_19 
REMARK    3  A    between atoms: C_8  and  C_9 
REMARK    4  A    between atoms: C_8  and  O_23 
REMARK    5  A    between atoms: N_14  and  C_17 
REMARK    6  A    between atoms: C_17  and  C_24 
REMARK    7  A    between atoms: N_19  and  C_26 
REMARK    8  A    between atoms: N_19  and  C_28 
REMARK    9  A    between atoms: C_24  and  C_26 
REMARK   10  A    between atoms: O_27  and  C_30 
REMARK   11  A    between atoms: C_28  and  C_30 
ROOT
HETATM    1  C   UNL     1       0.206  -0.500   0.233  1.00  0.00     0.122 A 
HETATM    2  N   UNL     1       1.307   1.390   0.020  1.00  0.00    -0.324 N 
HETATM    3  C   UNL     1       0.055   0.843  -0.090  1.00  0.00     0.140 A 
HETATM    4  N   UNL     1       1.526  -0.760   0.554  1.00  0.00    -0.346 N 
ATOM      5  HN  UNL     1       1.930  -1.655   0.829  1.00  0.00     0.167 HD
HETATM    6  C   UNL     1      -0.943  -1.329   0.130  1.00  0.00     0.135 A 
HETATM    7  C   UNL     1       2.150   0.391   0.430  1.00  0.00     0.185 A 
HETATM    8  N   UNL     1      -1.071   1.470  -0.470  1.00  0.00    -0.336 N 
ATOM      9  HN  UNL     1      -1.131   2.459  -0.712  1.00  0.00     0.168 HD
HETATM   10  N   UNL     1      -2.106  -0.716  -0.239  1.00  0.00    -0.337 N 
ATOM     11  HN  UNL     1      -2.966  -1.257  -0.326  1.00  0.00     0.168 HD
HETATM   12  C   UNL     1      -2.110   0.612  -0.488  1.00  0.00     0.183 A 
ENDROOT
BRANCH   6  13
HETATM   13  N   UNL     1      -0.926  -2.720   0.296  1.00  0.00    -0.362 N 
BRANCH  13  14
HETATM   14  C   UNL     1      -1.966  -3.499  -0.405  1.00  0.00     0.137 C 
BRANCH  14  15
HETATM   15  C   UNL     1      -1.774  -3.377  -1.914  1.00  0.00     0.123 C 
BRANCH  15  16
HETATM   16  C   UNL     1      -2.730  -4.214  -2.748  1.00  0.00    -0.076 C 
BRANCH  16  17
HETATM   17  N   UNL     1      -3.522  -4.909  -3.440  1.00  0.00    -0.370 N 
ATOM     18  HN2 UNL     1      -2.844  -4.380  -2.892  1.00  0.00     0.165 HD
ATOM     19  HN1 UNL     1      -4.164  -5.471  -4.000  1.00  0.00     0.165 HD
ENDBRANCH  16  17
ENDBRANCH  15  16
ENDBRANCH  14  15
ENDBRANCH  13  14
BRANCH  13  20
HETATM   20  C   UNL     1      -0.489  -3.195   1.620  1.00  0.00     0.150 C 
BRANCH  20  21
HETATM   21  C   UNL     1      -1.445  -2.798   2.756  1.00  0.00     0.186 C 
BRANCH  21  22
HETATM   22  O   UNL     1      -1.017  -3.407   3.978  1.00  0.00    -0.394 OA
HETATM   23  C   UNL     1      -1.838  -3.016   5.072  1.00  0.00     0.201 C 
ENDBRANCH  21  22
ENDBRANCH  20  21
ENDBRANCH  13  20
ENDBRANCH   6  13
BRANCH   2  24
HETATM   24  C   UNL     1       1.679   2.778  -0.186  1.00  0.00     0.172 C 
BRANCH  24  25
HETATM   25  C   UNL     1       1.961   3.190  -1.646  1.00  0.00     0.102 C 
HETATM   26  C   UNL     1       3.034   2.363  -2.386  1.00  0.00     0.153 C 
HETATM   27  O   UNL     1       3.662   3.245  -3.347  1.00  0.00    -0.383 OA
HETATM   28  C   UNL     1       2.543   1.140  -3.141  1.00  0.00     0.042 C 
HETATM   29  C   UNL     1       3.180   4.575  -3.119  1.00  0.00     0.171 C 
HETATM   30  C   UNL     1       2.603   4.573  -1.719  1.00  0.00     0.068 C 
BRANCH  25  31
HETATM   31  O   UNL     1       0.737   3.290  -2.387  1.00  0.00    -0.385 OA
HETATM   32  H   UNL     1       0.159   2.537  -2.159  1.00  0.00     0.210 HD
ENDBRANCH  25  31
ENDBRANCH  24  25
ENDBRANCH   2  24
TORSDOF 11
