REMARK  5 active torsions:
REMARK  status: ('A' for Active; 'I' for Inactive)
REMARK    1  A    between atoms: C_2  and  N_3 
REMARK    2  A    between atoms: C_2  and  C_12 
REMARK    3  A    between atoms: N_3  and  C_4 
REMARK    4  A    between atoms: C_4  and  C_5 
REMARK    5  A    between atoms: C_5  and  N_6 
ROOT
HETATM    1  N   UNL     1       2.930   0.358   1.389  1.00  0.00     0.089 N 
HETATM    2  H   UNL     1       2.550  -0.323   2.046  1.00  0.00     0.316 HD
ENDROOT
BRANCH   1   3
HETATM    3  C   UNL     1       2.514   0.019   0.013  1.00  0.00     0.220 C 
HETATM    4  C   UNL     1       0.993   0.172  -0.008  1.00  0.00     0.043 C 
BRANCH   3   5
HETATM    5  C   UNL     1       3.099  -1.335  -0.502  1.00  0.00     0.022 C 
HETATM    6  C   UNL     1       2.837  -1.612  -1.993  1.00  0.00     0.033 C 
HETATM    7  C   UNL     1       1.528  -2.336  -2.271  1.00  0.00     0.168 C 
HETATM    8  O   UNL     1       1.396  -3.499  -1.460  1.00  0.00    -0.391 OA
HETATM    9  C   UNL     1       1.417  -3.201  -0.067  1.00  0.00     0.168 C 
HETATM   10  C   UNL     1       2.747  -2.578   0.329  1.00  0.00     0.033 C 
ENDBRANCH   3   5
ENDBRANCH   1   3
BRANCH   1  11
HETATM   11  C   UNL     1       4.382   0.469   1.594  1.00  0.00     0.291 C 
BRANCH  11  12
HETATM   12  C   UNL     1       5.050   1.534   0.726  1.00  0.00     0.178 C 
BRANCH  12  13
HETATM   13  N   UNL     1       6.482   1.582   0.931  1.00  0.00    -0.302 N 
HETATM   14  C   UNL     1       7.159   2.380   1.806  1.00  0.00     0.111 A 
HETATM   15  C   UNL     1       8.494   2.138   1.581  1.00  0.00     0.037 A 
HETATM   16  C   UNL     1       8.514   1.175   0.555  1.00  0.00     0.108 A 
HETATM   17  N   UNL     1       7.288   0.823   0.165  1.00  0.00    -0.310 N 
ATOM     18  HN  UNL     1       7.024   0.140  -0.545  1.00  0.00     0.186 HD
ENDBRANCH  12  13
ENDBRANCH  11  12
ENDBRANCH   1  11
TORSDOF 5
