REMARK  7 active torsions:
REMARK  status: ('A' for Active; 'I' for Inactive)
REMARK    1  A    between atoms: C_2  and  N_3 
REMARK    2  A    between atoms: C_2  and  C_14 
REMARK    3  A    between atoms: N_3  and  C_4 
REMARK    4  A    between atoms: C_4  and  C_5 
REMARK    5  A    between atoms: C_5  and  C_6 
REMARK       I    between atoms: C_6  and  N_8 
REMARK    6  A    between atoms: N_8  and  C_9 
REMARK    7  A    between atoms: C_14  and  N_16 
ROOT
HETATM    1  N   UNL     1       2.989   1.298  -0.694  1.00  0.00     0.090 N 
HETATM    2  H   UNL     1       4.006   1.255  -0.623  1.00  0.00     0.316 HD
ENDROOT
BRANCH   1   3
HETATM    3  C   UNL     1       2.409   0.063  -0.100  1.00  0.00     0.240 C 
HETATM    4  C   UNL     1       2.960  -1.178  -0.824  1.00  0.00     0.045 C 
BRANCH   3   5
HETATM    5  C   UNL     1       0.849   0.050  -0.007  1.00  0.00     0.136 C 
HETATM    6  C   UNL     1       0.283  -1.218   0.644  1.00  0.00     0.036 C 
BRANCH   5   7
HETATM    7  N   UNL     1       0.338   1.235   0.685  1.00  0.00    -0.297 N 
HETATM    8  C   UNL     1      -0.472   2.202   0.149  1.00  0.00     0.112 A 
HETATM    9  C   UNL     1      -0.689   3.117   1.150  1.00  0.00     0.037 A 
HETATM   10  C   UNL     1       0.002   2.600   2.260  1.00  0.00     0.108 A 
HETATM   11  N   UNL     1       0.599   1.435   1.995  1.00  0.00    -0.310 N 
ATOM     12  HN  UNL     1       1.127   0.838   2.631  1.00  0.00     0.186 HD
ENDBRANCH   5   7
ENDBRANCH   3   5
ENDBRANCH   1   3
BRANCH   1  13
HETATM   13  C   UNL     1       2.599   1.530  -2.085  1.00  0.00     0.279 C 
BRANCH  13  14
HETATM   14  C   UNL     1       3.107   2.871  -2.611  1.00  0.00     0.132 C 
BRANCH  14  15
HETATM   15  C   UNL     1       2.635   3.015  -4.041  1.00  0.00     0.219 C 
HETATM   16  O   UNL     1       2.457   2.049  -4.781  1.00  0.00    -0.274 OA
HETATM   17  N   UNL     1       2.424   4.313  -4.444  1.00  0.00    -0.356 N 
HETATM   18  H   UNL     1       2.802   5.064  -3.882  1.00  0.00     0.162 HD
BRANCH  17  19
HETATM   19  C   UNL     1       1.981   4.599  -5.791  1.00  0.00     0.084 C 
HETATM   20  C   UNL     1       3.140   4.724  -6.783  1.00  0.00     0.025 C 
HETATM   21  C   UNL     1       2.750   5.847  -7.746  1.00  0.00     0.002 C 
HETATM   22  C   UNL     1       1.328   6.245  -7.375  1.00  0.00     0.002 C 
HETATM   23  C   UNL     1       1.229   5.918  -5.895  1.00  0.00     0.025 C 
ENDBRANCH  17  19
ENDBRANCH  14  15
ENDBRANCH  13  14
ENDBRANCH   1  13
TORSDOF 7
