REMARK  3 active torsions:
REMARK  status: ('A' for Active; 'I' for Inactive)
REMARK    1  A    between atoms: O_2  and  C_3 
REMARK    2  A    between atoms: C_9  and  N_10 
REMARK       I    between atoms: N_10  and  C_11 
REMARK    3  A    between atoms: C_11  and  C_13 
ROOT
HETATM    1  C   UNL     1       4.815   1.788  -1.529  1.00  0.00     0.169 A 
HETATM    2  N   UNL     1       4.479   3.085  -1.301  1.00  0.00    -0.345 N 
ATOM      3  HN  UNL     1       5.106   3.850  -1.551  1.00  0.00     0.167 HD
HETATM    4  C   UNL     1       3.280   3.316  -0.730  1.00  0.00     0.090 A 
HETATM    5  C   UNL     1       2.402   2.316  -0.366  1.00  0.00     0.019 A 
HETATM    6  C   UNL     1       2.768   0.993  -0.611  1.00  0.00     0.035 A 
HETATM    7  C   UNL     1       3.991   0.696  -1.218  1.00  0.00     0.086 A 
ENDROOT
BRANCH   7   8
HETATM    8  N   UNL     1       4.414  -0.630  -1.491  1.00  0.00    -0.321 N 
HETATM    9  C   UNL     1       3.628  -1.768  -1.417  1.00  0.00     0.251 C 
HETATM   10  O   UNL     1       2.418  -1.779  -1.204  1.00  0.00    -0.270 OA
HETATM   11  H   UNL     1       5.378  -0.743  -1.801  1.00  0.00     0.169 HD
BRANCH   9  12
HETATM   12  C   UNL     1       4.372  -3.073  -1.746  1.00  0.00     0.213 C 
HETATM   13  C   UNL     1       3.685  -4.272  -1.099  1.00  0.00     0.044 C 
HETATM   14  C   UNL     1       4.804  -5.215  -0.725  1.00  0.00     0.029 C 
HETATM   15  C   UNL     1       6.062  -4.519  -1.193  1.00  0.00     0.168 C 
HETATM   16  O   UNL     1       5.736  -3.128  -1.325  1.00  0.00    -0.376 OA
ENDBRANCH   9  12
ENDBRANCH   7   8
BRANCH   1  17
HETATM   17  O   UNL     1       6.029   1.521  -2.143  1.00  0.00    -0.339 OA
HETATM   18  C   UNL     1       6.821   2.697  -2.315  1.00  0.00     0.211 C 
ENDBRANCH   1  17
TORSDOF 3
