REMARK  2 active torsions:
REMARK  status: ('A' for Active; 'I' for Inactive)
REMARK    1  A    between atoms: C_5  and  N_8 
REMARK       I    between atoms: N_8  and  C_9 
REMARK       I    between atoms: C_9  and  N_11 
REMARK    2  A    between atoms: N_11  and  C_12 
ROOT
HETATM    1  N   UNL     1       4.618  -0.814  -3.049  1.00  0.00    -0.338 N 
HETATM    2  C   UNL     1       5.202  -0.317  -4.195  1.00  0.00     0.321 C 
HETATM    3  O   UNL     1       4.580   0.261  -5.072  1.00  0.00    -0.247 OA
HETATM    4  N   UNL     1       6.542  -0.645  -4.242  1.00  0.00    -0.308 N 
HETATM    5  H   UNL     1       5.187  -0.728  -2.219  1.00  0.00     0.164 HD
HETATM    6  H   UNL     1       6.762  -1.513  -3.774  1.00  0.00     0.170 HD
ENDROOT
BRANCH   1   7
HETATM    7  C   UNL     1       3.165  -0.756  -2.883  1.00  0.00     0.089 C 
HETATM    8  C   UNL     1       2.666   0.641  -2.507  1.00  0.00     0.055 C 
HETATM    9  C   UNL     1       2.946   0.972  -1.039  1.00  0.00     0.274 C 
HETATM   10  N   UNL     1       2.461  -0.040  -0.092  1.00  0.00     0.084 N 
HETATM   11  C   UNL     1       1.006  -0.013   0.050  1.00  0.00     0.309 C 
HETATM   12  C   UNL     1       2.961  -1.378  -0.430  1.00  0.00     0.274 C 
HETATM   13  C   UNL     1       2.689  -1.802  -1.873  1.00  0.00     0.055 C 
ENDBRANCH   1   7
BRANCH   4  14
HETATM   14  C   UNL     1       7.363  -0.278  -5.328  1.00  0.00     0.051 A 
HETATM   15  C   UNL     1       8.298  -1.193  -5.810  1.00  0.00     0.032 A 
HETATM   16  C   UNL     1       9.078  -0.855  -6.913  1.00  0.00     0.019 A 
HETATM   17  C   UNL     1       8.933   0.408  -7.465  1.00  0.00     0.088 A 
HETATM   18  N   UNL     1       8.066   1.333  -7.002  1.00  0.00    -0.373 N 
HETATM   19  C   UNL     1       7.287   0.963  -5.956  1.00  0.00     0.117 A 
ATOM     20  HN  UNL     1       8.000   2.262  -7.418  1.00  0.00     0.164 HD
ENDBRANCH   4  14
TORSDOF 2
