REMARK  6 active torsions:
REMARK  status: ('A' for Active; 'I' for Inactive)
REMARK    1  A    between atoms: C_2  and  C_5 
REMARK    2  A    between atoms: C_5  and  N_6 
REMARK    3  A    between atoms: C_8  and  C_12 
REMARK       I    between atoms: C_12  and  N_14 
REMARK    4  A    between atoms: N_14  and  C_15 
REMARK    5  A    between atoms: C_15  and  C_16 
REMARK    6  A    between atoms: C_16  and  C_17 
ROOT
HETATM    1  C   UNL     1       6.769  -3.295   2.017  1.00  0.00     0.223 C 
HETATM    2  O   UNL     1       6.733  -4.252   1.248  1.00  0.00    -0.273 OA
HETATM    3  N   UNL     1       6.991  -3.452   3.369  1.00  0.00    -0.360 N 
HETATM    4  H   UNL     1       7.187  -2.639   3.938  1.00  0.00     0.162 HD
ENDROOT
BRANCH   1   5
HETATM    5  C   UNL     1       6.484  -1.872   1.566  1.00  0.00     0.104 C 
HETATM    6  C   UNL     1       6.361  -1.811   0.044  1.00  0.00     0.140 C 
HETATM    7  N   UNL     1       7.095  -0.641  -0.364  1.00  0.00    -0.343 N 
HETATM    8  C   UNL     1       7.850  -0.106   0.664  1.00  0.00     0.220 C 
HETATM    9  C   UNL     1       7.591  -0.882   1.924  1.00  0.00     0.118 C 
HETATM   10  O   UNL     1       8.647   0.809   0.552  1.00  0.00    -0.273 OA
BRANCH   7  11
HETATM   11  C   UNL     1       7.544  -0.474  -1.750  1.00  0.00     0.243 C 
BRANCH  11  12
HETATM   12  C   UNL     1       8.897  -1.134  -2.084  1.00  0.00     0.403 C 
HETATM   13  F   UNL     1       9.484  -1.702  -1.006  1.00  0.00    -0.169 F 
HETATM   14  F   UNL     1       9.767  -0.241  -2.607  1.00  0.00    -0.169 F 
HETATM   15  F   UNL     1       8.729  -2.116  -3.003  1.00  0.00    -0.169 F 
ENDBRANCH  11  12
ENDBRANCH   7  11
ENDBRANCH   1   5
BRANCH   3  16
HETATM   16  C   UNL     1       7.350  -4.769   3.882  1.00  0.00     0.128 C 
BRANCH  16  17
HETATM   17  C   UNL     1       7.469  -4.798   5.400  1.00  0.00     0.076 C 
BRANCH  17  18
HETATM   18  C   UNL     1       7.820  -6.177   5.892  1.00  0.00     0.010 A 
HETATM   19  C   UNL     1       6.821  -7.093   6.217  1.00  0.00     0.025 A 
HETATM   20  C   UNL     1       7.187  -8.362   6.657  1.00  0.00     0.003 A 
HETATM   21  C   UNL     1       8.535  -8.684   6.753  1.00  0.00     0.017 A 
HETATM   22  C   UNL     1       9.461  -7.722   6.405  1.00  0.00     0.088 A 
HETATM   23  N   UNL     1       9.137  -6.481   5.976  1.00  0.00    -0.369 N 
ATOM     24  HN  UNL     1       9.855  -5.802   5.726  1.00  0.00     0.165 HD
ENDBRANCH  17  18
ENDBRANCH  16  17
ENDBRANCH   3  16
TORSDOF 6
