REMARK  6 active torsions:
REMARK  status: ('A' for Active; 'I' for Inactive)
REMARK    1  A    between atoms: C_6  and  O_7 
REMARK    2  A    between atoms: O_7  and  C_8 
REMARK    3  A    between atoms: C_8  and  C_9 
REMARK    4  A    between atoms: C_9  and  N_10 
REMARK    5  A    between atoms: C_11  and  C_20 
REMARK    6  A    between atoms: C_14  and  C_15 
REMARK       I    between atoms: C_15  and  N_17 
ROOT
HETATM    1  N   UNL     1       4.755  -6.105  -0.679  1.00  0.00    -0.307 N 
HETATM    2  C   UNL     1       4.049  -6.612  -1.787  1.00  0.00     0.121 C 
HETATM    3  C   UNL     1       3.466  -7.822  -1.677  1.00  0.00     0.036 C 
HETATM    4  C   UNL     1       3.582  -8.612  -0.482  1.00  0.00     0.025 C 
HETATM    5  C   UNL     1       4.184  -8.136   0.619  1.00  0.00     0.100 C 
HETATM    6  C   UNL     1       4.759  -6.759   0.568  1.00  0.00     0.264 C 
HETATM    7  O   UNL     1       5.235  -6.250   1.585  1.00  0.00    -0.267 OA
ENDROOT
BRANCH   1   8
HETATM    8  C   UNL     1       5.517  -4.853  -0.753  1.00  0.00     0.159 C 
BRANCH   8   9
HETATM    9  C   UNL     1       4.708  -3.624  -0.325  1.00  0.00     0.196 C 
BRANCH   9  10
HETATM   10  O   UNL     1       5.507  -2.434  -0.374  1.00  0.00    -0.350 OA
BRANCH  10  11
HETATM   11  C   UNL     1       6.065  -2.045   0.812  1.00  0.00     0.069 A 
HETATM   12  C   UNL     1       6.286  -0.677   0.969  1.00  0.00     0.037 A 
HETATM   13  C   UNL     1       6.855  -0.186   2.147  1.00  0.00     0.003 A 
HETATM   14  C   UNL     1       7.225  -1.068   3.167  1.00  0.00     0.007 A 
HETATM   15  C   UNL     1       7.028  -2.442   3.012  1.00  0.00    -0.059 A 
HETATM   16  C   UNL     1       7.427  -3.429   4.066  1.00  0.00     0.048 C 
HETATM   17  C   UNL     1       6.450  -2.917   1.830  1.00  0.00     0.043 A 
ENDBRANCH  10  11
ENDBRANCH   9  10
ENDBRANCH   8   9
ENDBRANCH   1   8
BRANCH   2  18
HETATM   18  C   UNL     1       3.882  -5.862  -3.104  1.00  0.00     0.432 C 
HETATM   19  F   UNL     1       4.349  -4.591  -3.106  1.00  0.00    -0.165 F 
HETATM   20  F   UNL     1       4.510  -6.510  -4.119  1.00  0.00    -0.165 F 
HETATM   21  F   UNL     1       2.569  -5.776  -3.450  1.00  0.00    -0.165 F 
ENDBRANCH   2  18
BRANCH   5  22
HETATM   22  C   UNL     1       4.269  -9.037   1.806  1.00  0.00     0.254 C 
HETATM   23  O   UNL     1       3.857 -10.193   1.791  1.00  0.00    -0.268 OA
HETATM   24  N   UNL     1       4.842  -8.523   2.923  1.00  0.00    -0.366 N 
HETATM   25  H   UNL     1       5.187  -7.566   2.959  1.00  0.00     0.159 HD
HETATM   26  H   UNL     1       4.930  -9.110   3.741  1.00  0.00     0.159 HD
ENDBRANCH   5  22
TORSDOF 6
