REMARK  8 active torsions:
REMARK  status: ('A' for Active; 'I' for Inactive)
REMARK       I    between atoms: N_2  and  C_3 
REMARK    1  A    between atoms: N_2  and  C_15 
REMARK    2  A    between atoms: C_3  and  C_5 
REMARK    3  A    between atoms: C_5  and  N_6 
REMARK    4  A    between atoms: N_6  and  C_7 
REMARK    5  A    between atoms: C_7  and  C_8 
REMARK    6  A    between atoms: C_8  and  N_9 
REMARK    7  A    between atoms: C_15  and  C_21 
REMARK    8  A    between atoms: C_21  and  N_22 
ROOT
HETATM    1  C   UNL     1       0.914  -0.112   0.194  1.00  0.00     0.154 C 
HETATM    2  N   UNL     1       2.380  -0.013   0.131  1.00  0.00    -0.334 N 
HETATM    3  C   UNL     1       2.990   1.222  -0.161  1.00  0.00     0.249 C 
HETATM    4  O   UNL     1       4.208   1.396  -0.093  1.00  0.00    -0.271 OA
ENDROOT
BRANCH   3   5
HETATM    5  C   UNL     1       2.079   2.368  -0.641  1.00  0.00     0.372 C 
BRANCH   5   6
HETATM    6  N   UNL     1       2.675   3.683  -0.348  1.00  0.00     0.093 N 
HETATM    7  H   UNL     1       3.600   3.722  -0.786  1.00  0.00     0.316 HD
BRANCH   6   8
HETATM    8  C   UNL     1       1.828   4.790  -0.821  1.00  0.00     0.291 C 
BRANCH   8   9
HETATM    9  C   UNL     1       0.466   4.851  -0.116  1.00  0.00     0.178 C 
BRANCH   9  10
HETATM   10  N   UNL     1      -0.326   5.985  -0.546  1.00  0.00    -0.302 N 
HETATM   11  C   UNL     1      -0.410   7.200   0.065  1.00  0.00     0.111 A 
HETATM   12  C   UNL     1      -1.351   7.911  -0.642  1.00  0.00     0.037 A 
HETATM   13  C   UNL     1      -1.776   7.036  -1.659  1.00  0.00     0.108 A 
HETATM   14  N   UNL     1      -1.146   5.858  -1.608  1.00  0.00    -0.310 N 
ATOM     15  HN  UNL     1      -1.259   5.054  -2.226  1.00  0.00     0.186 HD
ENDBRANCH   9  10
ENDBRANCH   8   9
ENDBRANCH   6   8
ENDBRANCH   5   6
ENDBRANCH   3   5
BRANCH   2  16
HETATM   16  C   UNL     1       3.191  -1.088   0.831  1.00  0.00     0.106 C 
HETATM   17  C   UNL     1       4.592  -1.357   0.226  1.00  0.00     0.045 C 
HETATM   18  C   UNL     1       4.498  -1.815  -1.235  1.00  0.00     0.004 C 
HETATM   19  C   UNL     1       3.715  -3.121  -1.367  1.00  0.00     0.000 C 
HETATM   20  C   UNL     1       2.360  -3.047  -0.682  1.00  0.00     0.004 C 
HETATM   21  C   UNL     1       2.467  -2.491   0.741  1.00  0.00     0.045 C 
BRANCH  16  22
HETATM   22  C   UNL     1       3.242  -0.807   2.324  1.00  0.00    -0.045 C 
BRANCH  22  23
HETATM   23  N   UNL     1       3.284  -0.574   3.562  1.00  0.00    -0.367 N 
ATOM     24  HN2 UNL     1       3.238  -0.763   2.561  1.00  0.00     0.165 HD
ATOM     25  HN1 UNL     1       3.318  -0.385   4.564  1.00  0.00     0.165 HD
ENDBRANCH  22  23
ENDBRANCH  16  22
ENDBRANCH   2  16
TORSDOF 8
