REMARK  8 active torsions:
REMARK  status: ('A' for Active; 'I' for Inactive)
REMARK    1  A    between atoms: N_2  and  C_13 
REMARK    2  A    between atoms: N_4  and  C_7 
REMARK    3  A    between atoms: C_13  and  C_18 
REMARK    4  A    between atoms: C_18  and  C_22 
REMARK    5  A    between atoms: C_18  and  C_23 
REMARK    6  A    between atoms: C_20  and  C_26 
REMARK    7  A    between atoms: C_23  and  O_25 
REMARK    8  A    between atoms: C_26  and  O_29 
ROOT
HETATM    1  C   UNL     1       0.320  -0.790  -0.356  1.00  0.00     0.117 A 
HETATM    2  N   UNL     1       1.466   1.066  -0.410  1.00  0.00    -0.327 N 
HETATM    3  C   UNL     1       0.189   0.579  -0.508  1.00  0.00     0.140 A 
HETATM    4  N   UNL     1       1.651  -1.144  -0.271  1.00  0.00    -0.346 N 
ATOM      5  HN  UNL     1       2.039  -2.085  -0.208  1.00  0.00     0.167 HD
HETATM    6  C   UNL     1      -0.873  -1.544  -0.269  1.00  0.00     0.114 A 
HETATM    7  C   UNL     1       2.313  -0.004  -0.289  1.00  0.00     0.185 A 
HETATM    8  N   UNL     1      -0.951   1.277  -0.640  1.00  0.00    -0.336 N 
ATOM      9  HN  UNL     1      -1.001   2.288  -0.769  1.00  0.00     0.168 HD
HETATM   10  N   UNL     1      -2.052  -0.879  -0.376  1.00  0.00    -0.341 N 
ATOM     11  HN  UNL     1      -2.940  -1.376  -0.305  1.00  0.00     0.167 HD
HETATM   12  C   UNL     1      -2.021   0.457  -0.579  1.00  0.00     0.183 A 
ENDROOT
BRANCH   6  13
HETATM   13  N   UNL     1      -0.826  -2.916  -0.056  1.00  0.00    -0.262 NA
HETATM   14  C   UNL     1      -1.920  -3.542   0.690  1.00  0.00     0.134 C 
HETATM   15  C   UNL     1      -1.492  -5.002   1.038  1.00  0.00     0.066 C 
HETATM   16  O   UNL     1      -1.131  -5.738  -0.164  1.00  0.00    -0.371 OA
HETATM   17  C   UNL     1      -0.332  -5.018   2.052  1.00  0.00     0.047 C 
HETATM   18  C   UNL     1      -2.674  -5.757   1.657  1.00  0.00     0.047 C 
HETATM   19  C   UNL     1      -0.110  -5.077  -0.947  1.00  0.00     0.159 C 
HETATM   20  C   UNL     1      -0.515  -3.634  -1.299  1.00  0.00     0.131 C 
BRANCH  19  21
HETATM   21  C   UNL     1       0.142  -5.868  -2.235  1.00  0.00     0.200 C 
BRANCH  21  22
HETATM   22  O   UNL     1       1.195  -5.243  -2.972  1.00  0.00    -0.393 OA
HETATM   23  C   UNL     1       1.456  -5.894  -4.205  1.00  0.00     0.201 C 
ENDBRANCH  21  22
ENDBRANCH  19  21
ENDBRANCH   6  13
BRANCH   2  24
HETATM   24  C   UNL     1       1.816   2.440  -0.138  1.00  0.00     0.138 C 
BRANCH  24  25
HETATM   25  C   UNL     1       2.799   3.116  -1.116  1.00  0.00     0.034 C 
BRANCH  25  26
HETATM   26  C   UNL     1       2.240   3.199  -2.561  1.00  0.00     0.019 C 
HETATM   27  C   UNL     1       3.201   3.859  -3.552  1.00  0.00     0.172 C 
HETATM   28  O   UNL     1       2.622   5.121  -3.896  1.00  0.00    -0.391 OA
HETATM   29  C   UNL     1       1.206   4.933  -3.868  1.00  0.00     0.168 C 
HETATM   30  C   UNL     1       0.954   4.010  -2.697  1.00  0.00     0.033 C 
ENDBRANCH  25  26
BRANCH  25  31
HETATM   31  C   UNL     1       3.197   4.486  -0.531  1.00  0.00     0.170 C 
BRANCH  31  32
HETATM   32  O   UNL     1       3.883   4.300   0.704  1.00  0.00    -0.400 OA
HETATM   33  H   UNL     1       3.226   4.297   1.422  1.00  0.00     0.209 HD
ENDBRANCH  31  32
ENDBRANCH  25  31
ENDBRANCH  24  25
ENDBRANCH   2  24
TORSDOF 8
