REMARK  4 active torsions:
REMARK  status: ('A' for Active; 'I' for Inactive)
REMARK    1  A    between atoms: O_1  and  C_2 
REMARK    2  A    between atoms: C_5  and  N_8 
REMARK       I    between atoms: N_8  and  C_9 
REMARK       I    between atoms: C_9  and  N_11 
REMARK    3  A    between atoms: N_11  and  C_12 
REMARK    4  A    between atoms: C_18  and  N_19 
ROOT
HETATM    1  N   UNL     1       4.473  -0.755  -2.987  1.00  0.00    -0.338 N 
HETATM    2  C   UNL     1       5.041   0.210  -3.790  1.00  0.00     0.321 C 
HETATM    3  O   UNL     1       4.352   0.940  -4.490  1.00  0.00    -0.247 OA
HETATM    4  N   UNL     1       6.418   0.216  -3.722  1.00  0.00    -0.305 N 
HETATM    5  H   UNL     1       5.018  -1.097  -2.206  1.00  0.00     0.164 HD
HETATM    6  H   UNL     1       6.825  -0.206  -2.911  1.00  0.00     0.171 HD
ENDROOT
BRANCH   4   7
HETATM    7  C   UNL     1       7.279   1.004  -4.529  1.00  0.00     0.080 A 
HETATM    8  C   UNL     1       6.812   1.459  -5.780  1.00  0.00     0.035 A 
HETATM    9  C   UNL     1       7.587   2.277  -6.585  1.00  0.00     0.019 A 
HETATM   10  C   UNL     1       8.836   2.603  -6.127  1.00  0.00     0.090 A 
HETATM   11  N   UNL     1       9.336   2.173  -4.948  1.00  0.00    -0.351 N 
HETATM   12  C   UNL     1       8.589   1.377  -4.129  1.00  0.00     0.130 A 
ATOM     13  HN  UNL     1      10.278   2.445  -4.668  1.00  0.00     0.166 HD
BRANCH  12  14
HETATM   14  N   UNL     1       9.157   1.092  -2.894  1.00  0.00    -0.365 N 
HETATM   15  C   UNL     1       9.104  -0.207  -2.236  1.00  0.00     0.124 C 
HETATM   16  C   UNL     1      10.325  -0.256  -1.315  1.00  0.00     0.021 C 
HETATM   17  C   UNL     1      11.309   0.702  -1.950  1.00  0.00     0.021 C 
HETATM   18  C   UNL     1      10.415   1.780  -2.548  1.00  0.00     0.124 C 
ENDBRANCH  12  14
ENDBRANCH   4   7
BRANCH   1  19
HETATM   19  C   UNL     1       3.018  -0.893  -2.932  1.00  0.00     0.086 C 
HETATM   20  C   UNL     1       2.393   0.128  -1.973  1.00  0.00     0.028 C 
HETATM   21  C   UNL     1       2.656  -0.214  -0.505  1.00  0.00     0.034 C 
HETATM   22  C   UNL     1       2.228  -1.641  -0.163  1.00  0.00     0.118 C 
HETATM   23  C   UNL     1       2.860  -2.663  -1.107  1.00  0.00     0.034 C 
HETATM   24  C   UNL     1       2.609  -2.324  -2.577  1.00  0.00     0.028 C 
BRANCH  22  25
HETATM   25  O   UNL     1       0.810  -1.752  -0.263  1.00  0.00    -0.396 OA
HETATM   26  H   UNL     1       0.418  -1.106   0.350  1.00  0.00     0.210 HD
ENDBRANCH  22  25
ENDBRANCH   1  19
TORSDOF 4
