REMARK  6 active torsions:
REMARK  status: ('A' for Active; 'I' for Inactive)
REMARK    1  A    between atoms: N_6  and  C_7 
REMARK    2  A    between atoms: C_7  and  C_8 
REMARK    3  A    between atoms: C_8  and  O_9 
REMARK    4  A    between atoms: C_8  and  C_10 
REMARK    5  A    between atoms: C_10  and  O_11 
REMARK    6  A    between atoms: O_11  and  C_12 
ROOT
HETATM    1  C   UNL     1       6.735   0.085   0.063  1.00  0.00     0.166 C 
ENDROOT
BRANCH   1   2
HETATM    2  N   UNL     1       5.277   0.062   0.133  1.00  0.00    -0.307 N 
HETATM    3  C   UNL     1       4.530   0.059  -1.013  1.00  0.00     0.186 A 
HETATM    4  N   UNL     1       3.242   0.075  -1.057  1.00  0.00    -0.355 N 
HETATM    5  C   UNL     1       2.570   0.077   0.140  1.00  0.00     0.017 A 
ATOM      6  HN  UNL     1       2.742   0.086  -1.946  1.00  0.00     0.166 HD
HETATM    7  C   UNL     1       1.069   0.141   0.011  1.00  0.00     0.069 C 
HETATM    8  C   UNL     1       3.174   0.026   1.342  1.00  0.00     0.028 A 
HETATM    9  C   UNL     1       4.661  -0.010   1.362  1.00  0.00     0.256 A 
HETATM   10  C   UNL     1       2.451   0.012   2.653  1.00  0.00     0.056 C 
HETATM   11  O   UNL     1       5.283  -0.085   2.419  1.00  0.00    -0.267 OA
ENDBRANCH   1   2
BRANCH   1  12
HETATM   12  C   UNL     1       7.359  -1.321   0.011  1.00  0.00     0.161 C 
BRANCH  12  13
HETATM   13  O   UNL     1       6.930  -1.967  -1.199  1.00  0.00    -0.392 OA
HETATM   14  H   UNL     1       7.535  -1.721  -1.920  1.00  0.00     0.210 HD
ENDBRANCH  12  13
BRANCH  12  15
HETATM   15  C   UNL     1       8.897  -1.208   0.065  1.00  0.00     0.209 C 
BRANCH  15  16
HETATM   16  O   UNL     1       9.480  -2.513   0.054  1.00  0.00    -0.349 OA
BRANCH  16  17
HETATM   17  C   UNL     1      10.849  -2.582   0.053  1.00  0.00     0.068 A 
HETATM   18  C   UNL     1      11.729  -1.502   0.098  1.00  0.00     0.037 A 
HETATM   19  C   UNL     1      13.113  -1.711   0.087  1.00  0.00     0.003 A 
HETATM   20  C   UNL     1      13.624  -3.006   0.033  1.00  0.00     0.000 A 
HETATM   21  C   UNL     1      12.753  -4.091  -0.009  1.00  0.00     0.003 A 
HETATM   22  C   UNL     1      11.372  -3.877   0.001  1.00  0.00     0.037 A 
ENDBRANCH  16  17
ENDBRANCH  15  16
ENDBRANCH  12  15
ENDBRANCH   1  12
TORSDOF 6
