REMARK  5 active torsions:
REMARK  status: ('A' for Active; 'I' for Inactive)
REMARK    1  A    between atoms: C_5  and  N_8 
REMARK       I    between atoms: N_8  and  C_9 
REMARK       I    between atoms: C_9  and  N_11 
REMARK    2  A    between atoms: N_11  and  C_12 
REMARK    3  A    between atoms: C_16  and  O_17 
REMARK    4  A    between atoms: O_17  and  C_18 
REMARK    5  A    between atoms: C_18  and  C_19 
ROOT
HETATM    1  N   UNL     1       4.630  -0.666  -3.016  1.00  0.00    -0.338 N 
HETATM    2  C   UNL     1       5.205   0.282  -3.837  1.00  0.00     0.322 C 
HETATM    3  O   UNL     1       4.550   1.128  -4.429  1.00  0.00    -0.247 OA
HETATM    4  N   UNL     1       6.564   0.100  -3.947  1.00  0.00    -0.295 N 
HETATM    5  H   UNL     1       5.190  -0.947  -2.221  1.00  0.00     0.164 HD
HETATM    6  H   UNL     1       6.861  -0.864  -3.968  1.00  0.00     0.172 HD
ENDROOT
BRANCH   4   7
HETATM    7  C   UNL     1       7.335   0.924  -4.779  1.00  0.00     0.110 A 
HETATM    8  C   UNL     1       7.173   2.308  -4.764  1.00  0.00     0.049 A 
HETATM    9  C   UNL     1       7.935   3.082  -5.629  1.00  0.00     0.008 A 
HETATM   10  C   UNL     1       8.820   2.452  -6.491  1.00  0.00     0.056 A 
HETATM   11  C   UNL     1       8.909   1.069  -6.437  1.00  0.00     0.143 A 
HETATM   12  N   UNL     1       8.226   0.290  -5.571  1.00  0.00    -0.323 N 
ATOM     13  HN  UNL     1       8.374  -0.718  -5.518  1.00  0.00     0.169 HD
BRANCH  11  14
HETATM   14  O   UNL     1       9.792   0.481  -7.317  1.00  0.00    -0.330 OA
BRANCH  14  15
HETATM   15  C   UNL     1       9.303  -0.776  -7.800  1.00  0.00     0.248 C 
BRANCH  15  16
HETATM   16  C   UNL     1      10.207  -1.250  -8.924  1.00  0.00     0.377 C 
HETATM   17  F   UNL     1       9.880  -2.518  -9.280  1.00  0.00    -0.212 F 
HETATM   18  F   UNL     1      10.018  -0.481 -10.029  1.00  0.00    -0.212 F 
ENDBRANCH  15  16
ENDBRANCH  14  15
ENDBRANCH  11  14
ENDBRANCH   4   7
BRANCH   1  19
HETATM   19  C   UNL     1       3.175  -0.723  -2.887  1.00  0.00     0.089 C 
HETATM   20  C   UNL     1       2.621   0.354  -1.945  1.00  0.00     0.055 C 
HETATM   21  C   UNL     1       2.830  -0.006  -0.474  1.00  0.00     0.274 C 
HETATM   22  N   UNL     1       2.343  -1.341  -0.106  1.00  0.00     0.084 N 
HETATM   23  C   UNL     1       0.883  -1.400  -0.033  1.00  0.00     0.309 C 
HETATM   24  C   UNL     1       2.901  -2.376  -0.981  1.00  0.00     0.274 C 
HETATM   25  C   UNL     1       2.700  -2.119  -2.475  1.00  0.00     0.055 C 
ENDBRANCH   1  19
TORSDOF 5
