REMARK  7 active torsions:
REMARK  status: ('A' for Active; 'I' for Inactive)
REMARK    1  A    between atoms: C_2  and  C_3 
REMARK    2  A    between atoms: C_3  and  C_4 
REMARK    3  A    between atoms: C_4  and  O_6 
REMARK    4  A    between atoms: C_4  and  C_7 
REMARK    5  A    between atoms: C_7  and  N_8 
REMARK       I    between atoms: N_8  and  C_9 
REMARK    6  A    between atoms: C_9  and  C_11 
REMARK    7  A    between atoms: C_17  and  N_18 
ROOT
HETATM    1  C   UNL     1       8.688  -4.117   1.405  1.00  0.00     0.070 A 
HETATM    2  C   UNL     1       9.314  -4.937   2.354  1.00  0.00     0.022 A 
HETATM    3  C   UNL     1      10.698  -4.972   2.420  1.00  0.00     0.018 A 
HETATM    4  C   UNL     1      11.401  -4.186   1.527  1.00  0.00     0.089 A 
HETATM    5  N   UNL     1      10.821  -3.358   0.624  1.00  0.00    -0.356 N 
ATOM      6  HN  UNL     1      11.392  -2.778   0.010  1.00  0.00     0.166 HD
HETATM    7  C   UNL     1       9.465  -3.316   0.553  1.00  0.00     0.098 A 
ENDROOT
BRANCH   1   8
HETATM    8  C   UNL     1       7.213  -4.146   1.373  1.00  0.00     0.255 C 
HETATM    9  N   UNL     1       6.576  -2.925   1.282  1.00  0.00    -0.354 N 
HETATM   10  H   UNL     1       7.158  -2.109   1.105  1.00  0.00     0.162 HD
HETATM   11  O   UNL     1       6.653  -5.234   1.404  1.00  0.00    -0.268 OA
BRANCH   9  12
HETATM   12  C   UNL     1       5.135  -2.826   1.127  1.00  0.00     0.160 C 
BRANCH  12  13
HETATM   13  C   UNL     1       4.350  -2.962   2.457  1.00  0.00     0.070 C 
HETATM   14  C   UNL     1       4.868  -1.945   3.481  1.00  0.00     0.047 C 
BRANCH  13  15
HETATM   15  C   UNL     1       2.834  -2.771   2.233  1.00  0.00     0.038 C 
BRANCH  15  16
HETATM   16  C   UNL     1       2.217  -3.767   1.241  1.00  0.00    -0.002 C 
HETATM   17  C   UNL     1       0.709  -3.607   1.139  1.00  0.00     0.005 C 
ENDBRANCH  15  16
ENDBRANCH  13  15
BRANCH  13  18
HETATM   18  O   UNL     1       4.540  -4.272   3.004  1.00  0.00    -0.389 OA
HETATM   19  H   UNL     1       4.160  -4.300   3.889  1.00  0.00     0.210 HD
ENDBRANCH  13  18
ENDBRANCH  12  13
ENDBRANCH   9  12
ENDBRANCH   1   8
BRANCH   7  20
HETATM   20  N   UNL     1       8.884  -2.374  -0.300  1.00  0.00    -0.265 NA
HETATM   21  C   UNL     1       9.770  -1.292  -0.768  1.00  0.00     0.123 C 
HETATM   22  C   UNL     1       8.865  -0.153  -1.270  1.00  0.00     0.182 C 
HETATM   23  O   UNL     1       7.996  -0.592  -2.332  1.00  0.00    -0.389 OA
HETATM   24  C   UNL     1       7.188  -1.708  -1.912  1.00  0.00     0.182 C 
HETATM   25  C   UNL     1       8.058  -2.883  -1.420  1.00  0.00     0.123 C 
ENDBRANCH   7  20
TORSDOF 7
