REMARK  4 active torsions:
REMARK  status: ('A' for Active; 'I' for Inactive)
REMARK       I    between atoms: C_2  and  N_4 
REMARK    1  A    between atoms: C_7  and  N_10 
REMARK       I    between atoms: N_10  and  C_11 
REMARK    2  A    between atoms: C_11  and  C_13 
REMARK    3  A    between atoms: C_13  and  N_14 
REMARK    4  A    between atoms: C_16  and  C_21 
ROOT
HETATM    1  N   UNL     1       5.826   3.794  -0.045  1.00  0.00    -0.355 N 
HETATM    2  C   UNL     1       6.253   5.026   0.420  1.00  0.00     0.236 C 
HETATM    3  O   UNL     1       5.679   6.081   0.162  1.00  0.00    -0.272 OA
HETATM    4  H   UNL     1       6.179   2.976   0.439  1.00  0.00     0.162 HD
ENDROOT
BRANCH   2   5
HETATM    5  C   UNL     1       7.548   4.963   1.231  1.00  0.00     0.234 C 
BRANCH   5   6
HETATM    6  N   UNL     1       7.456   5.657   2.511  1.00  0.00    -0.315 N 
HETATM    7  C   UNL     1       7.867   6.977   2.607  1.00  0.00     0.110 A 
HETATM    8  C   UNL     1       7.932   7.614   3.790  1.00  0.00     0.063 A 
HETATM    9  C   UNL     1       7.524   6.898   4.989  1.00  0.00     0.023 A 
HETATM   10  C   UNL     1       7.090   5.632   4.920  1.00  0.00     0.075 A 
HETATM   11  C   UNL     1       7.022   4.927   3.612  1.00  0.00     0.247 A 
HETATM   12  O   UNL     1       6.627   3.764   3.562  1.00  0.00    -0.268 OA
BRANCH   8  13
HETATM   13  C   UNL     1       8.467   9.017   3.901  1.00  0.00     0.418 C 
HETATM   14  F   UNL     1       8.667   9.405   5.188  1.00  0.00    -0.166 F 
HETATM   15  F   UNL     1       9.665   9.135   3.271  1.00  0.00    -0.166 F 
HETATM   16  F   UNL     1       7.635   9.928   3.339  1.00  0.00    -0.166 F 
ENDBRANCH   8  13
ENDBRANCH   5   6
ENDBRANCH   2   5
BRANCH   1  17
HETATM   17  C   UNL     1       4.611   3.649  -0.841  1.00  0.00     0.087 C 
HETATM   18  C   UNL     1       3.350   3.640   0.029  1.00  0.00     0.045 C 
HETATM   19  C   UNL     1       3.193   2.339   0.811  1.00  0.00     0.127 C 
HETATM   20  N   UNL     1       3.308   1.163  -0.056  1.00  0.00    -0.352 N 
HETATM   21  C   UNL     1       2.611  -0.023   0.147  1.00  0.00     0.215 C 
HETATM   22  C   UNL     1       4.492   1.115  -0.910  1.00  0.00     0.127 C 
HETATM   23  C   UNL     1       1.520  -0.020   1.187  1.00  0.00     0.117 C 
HETATM   24  O   UNL     1       2.850  -1.051  -0.487  1.00  0.00    -0.274 OA
HETATM   25  C   UNL     1       4.668   2.395  -1.717  1.00  0.00     0.045 C 
ENDBRANCH   1  17
TORSDOF 4
