REMARK  2 active torsions:
REMARK  status: ('A' for Active; 'I' for Inactive)
REMARK    1  A    between atoms: C_1  and  C_2 
REMARK    2  A    between atoms: C_1  and  N_8 
ROOT
HETATM    1  C   UNL     1       0.916   0.095   0.172  1.00  0.00     0.185 C 
ENDROOT
BRANCH   1   2
HETATM    2  C   UNL     1       0.764   1.616   0.036  1.00  0.00     0.240 C 
HETATM    3  C   UNL     1       0.095   2.019  -1.284  1.00  0.00     0.037 C 
HETATM    4  C   UNL     1       0.195   3.536  -1.452  1.00  0.00     0.004 C 
HETATM    5  C   UNL     1      -0.331   4.281  -0.223  1.00  0.00     0.030 C 
HETATM    6  C   UNL     1       0.150   3.679   1.099  1.00  0.00     0.270 C 
HETATM    7  N   UNL     1      -0.018   2.223   1.139  1.00  0.00     0.089 N 
HETATM    8  H   UNL     1      -1.008   2.001   1.028  1.00  0.00     0.316 HD
ENDBRANCH   1   2
BRANCH   1   9
HETATM    9  N   UNL     1       1.613  -0.267   1.390  1.00  0.00    -0.285 N 
HETATM   10  C   UNL     1       1.072  -0.661   2.572  1.00  0.00     0.201 A 
HETATM   11  N   UNL     1       2.026  -0.850   3.452  1.00  0.00    -0.346 N 
HETATM   12  C   UNL     1       3.155  -0.537   2.749  1.00  0.00     0.198 A 
ATOM     13  HN  UNL     1       1.945  -1.155   4.422  1.00  0.00     0.167 HD
HETATM   14  N   UNL     1       2.959  -0.205   1.469  1.00  0.00    -0.293 N 
ATOM     15  HN  UNL     1       3.641   0.031   0.748  1.00  0.00     0.188 HD
ENDBRANCH   1   9
TORSDOF 2
