REMARK  4 active torsions:
REMARK  status: ('A' for Active; 'I' for Inactive)
REMARK    1  A    between atoms: C_8  and  C_9 
REMARK    2  A    between atoms: C_9  and  C_10 
REMARK       I    between atoms: C_10  and  N_12 
REMARK    3  A    between atoms: N_12  and  C_13 
REMARK    4  A    between atoms: C_13  and  C_14 
ROOT
HETATM    1  C   UNL     1       1.817   3.033   0.152  1.00  0.00     0.222 C 
HETATM    2  O   UNL     1       0.983   2.132   0.219  1.00  0.00    -0.273 OA
HETATM    3  N   UNL     1       1.460   4.371   0.135  1.00  0.00    -0.360 N 
HETATM    4  H   UNL     1       2.151   5.072  -0.101  1.00  0.00     0.162 HD
ENDROOT
BRANCH   1   5
HETATM    5  C   UNL     1       3.301   2.732   0.060  1.00  0.00     0.146 C 
BRANCH   5   6
HETATM    6  C   UNL     1       3.979   2.464   1.363  1.00  0.00     0.006 A 
HETATM    7  C   UNL     1       3.485   1.932   2.594  1.00  0.00     0.038 A 
HETATM    8  C   UNL     1       2.120   1.485   2.966  1.00  0.00     0.071 C 
HETATM    9  N   UNL     1       4.459   1.832   3.507  1.00  0.00    -0.265 N 
HETATM   10  O   UNL     1       5.609   2.260   2.889  1.00  0.00    -0.242 OA
ATOM     11  HN  UNL     1       4.366   1.504   4.468  1.00  0.00     0.194 HD
HETATM   12  C   UNL     1       5.330   2.624   1.614  1.00  0.00     0.081 A 
HETATM   13  C   UNL     1       6.482   3.066   0.805  1.00  0.00     0.079 C 
ENDBRANCH   5   6
ENDBRANCH   1   5
BRANCH   3  14
HETATM   14  C   UNL     1       0.049   4.702   0.080  1.00  0.00     0.129 C 
BRANCH  14  15
HETATM   15  C   UNL     1      -0.274   6.189   0.087  1.00  0.00     0.029 C 
HETATM   16  C   UNL     1       0.095   6.944   1.348  1.00  0.00     0.034 C 
HETATM   17  C   UNL     1      -0.910   8.086   1.384  1.00  0.00     0.168 C 
HETATM   18  O   UNL     1      -1.990   7.746   0.506  1.00  0.00    -0.391 OA
HETATM   19  C   UNL     1      -1.778   6.413   0.036  1.00  0.00     0.173 C 
ENDBRANCH  14  15
ENDBRANCH   3  14
TORSDOF 4
