REMARK  3 active torsions:
REMARK  status: ('A' for Active; 'I' for Inactive)
REMARK    1  A    between atoms: C_4  and  C_5 
REMARK    2  A    between atoms: C_5  and  N_6 
REMARK       I    between atoms: N_6  and  C_7 
REMARK       I    between atoms: C_7  and  N_9 
REMARK    3  A    between atoms: N_9  and  C_10 
ROOT
HETATM    1  N   UNL     1       2.576  -2.911  -2.015  1.00  0.00    -0.342 N 
HETATM    2  C   UNL     1       1.980  -3.777  -2.883  1.00  0.00     0.322 C 
HETATM    3  O   UNL     1       1.364  -3.407  -3.880  1.00  0.00    -0.247 OA
HETATM    4  N   UNL     1       2.035  -5.101  -2.567  1.00  0.00    -0.289 N 
HETATM    5  H   UNL     1       3.248  -3.316  -1.368  1.00  0.00     0.164 HD
HETATM    6  H   UNL     1       1.490  -5.717  -3.148  1.00  0.00     0.172 HD
ENDROOT
BRANCH   1   7
HETATM    7  C   UNL     1       2.628  -1.498  -2.265  1.00  0.00     0.129 C 
BRANCH   7   8
HETATM    8  C   UNL     1       3.328  -0.816  -1.132  1.00  0.00     0.007 A 
HETATM    9  C   UNL     1       4.353   0.274  -1.365  1.00  0.00    -0.013 A 
HETATM   10  C   UNL     1       4.757   0.700  -2.737  1.00  0.00     0.010 C 
HETATM   11  C   UNL     1       4.789  -1.068  -0.836  1.00  0.00     0.011 A 
ENDBRANCH   7   8
ENDBRANCH   1   7
BRANCH   4  12
HETATM   12  C   UNL     1       2.736  -5.633  -1.526  1.00  0.00     0.152 A 
HETATM   13  N   UNL     1       3.598  -5.028  -0.742  1.00  0.00    -0.346 N 
HETATM   14  C   UNL     1       4.062  -5.926   0.196  1.00  0.00     0.097 A 
ATOM     15  HN  UNL     1       3.879  -4.050  -0.815  1.00  0.00     0.167 HD
HETATM   16  C   UNL     1       3.520  -7.193   0.122  1.00  0.00     0.070 A 
HETATM   17  S   UNL     1       2.442  -7.282  -1.213  1.00  0.00    -0.064 SA
ENDBRANCH   4  12
TORSDOF 3
