REMARK  3 active torsions:
REMARK  status: ('A' for Active; 'I' for Inactive)
REMARK       I    between atoms: C_2  and  N_3 
REMARK       I    between atoms: C_2  and  N_13 
REMARK    1  A    between atoms: N_3  and  C_4 
REMARK    2  A    between atoms: N_13  and  C_14 
REMARK    3  A    between atoms: C_17  and  N_21 
ROOT
HETATM    1  O   UNL     1       1.038  -0.190  -0.355  1.00  0.00    -0.247 OA
HETATM    2  C   UNL     1       2.216   0.054  -0.129  1.00  0.00     0.321 C 
HETATM    3  N   UNL     1       2.823  -0.276   1.066  1.00  0.00    -0.336 N 
HETATM    4  N   UNL     1       3.078   0.709  -0.977  1.00  0.00    -0.308 N 
HETATM    5  H   UNL     1       3.824  -0.404   1.043  1.00  0.00     0.164 HD
HETATM    6  H   UNL     1       3.913   1.087  -0.554  1.00  0.00     0.170 HD
ENDROOT
BRANCH   4   7
HETATM    7  C   UNL     1       2.759   1.152  -2.281  1.00  0.00     0.051 A 
HETATM    8  C   UNL     1       1.657   0.713  -2.999  1.00  0.00     0.035 A 
HETATM    9  C   UNL     1       1.403   1.227  -4.274  1.00  0.00     0.051 A 
HETATM   10  C   UNL     1       2.260   2.160  -4.851  1.00  0.00     0.103 A 
HETATM   11  N   UNL     1       3.339   2.590  -4.159  1.00  0.00    -0.350 N 
HETATM   12  C   UNL     1       3.567   2.084  -2.916  1.00  0.00     0.119 A 
ATOM     13  HN  UNL     1       3.971   3.282  -4.561  1.00  0.00     0.166 HD
BRANCH  10  14
HETATM   14  N   UNL     1       2.024   2.674  -6.107  1.00  0.00    -0.367 N 
HETATM   15  C   UNL     1       3.001   3.579  -6.706  1.00  0.00     0.124 C 
HETATM   16  C   UNL     1       2.780   3.448  -8.214  1.00  0.00     0.021 C 
HETATM   17  C   UNL     1       2.069   2.116  -8.382  1.00  0.00     0.021 C 
HETATM   18  C   UNL     1       1.231   1.992  -7.118  1.00  0.00     0.124 C 
ENDBRANCH  10  14
ENDBRANCH   4   7
BRANCH   3  19
HETATM   19  C   UNL     1       2.102  -0.974   2.132  1.00  0.00     0.121 C 
HETATM   20  C   UNL     1       0.854  -0.219   2.633  1.00  0.00     0.057 C 
HETATM   21  C   UNL     1      -0.309  -1.195   2.454  1.00  0.00     0.275 C 
HETATM   22  N   UNL     1       0.350  -2.496   2.565  1.00  0.00     0.095 N 
HETATM   23  C   UNL     1      -0.457  -3.623   2.107  1.00  0.00     0.273 C 
HETATM   24  C   UNL     1       1.556  -2.357   1.732  1.00  0.00     0.245 C 
HETATM   25  C   UNL     1       0.357  -4.916   2.261  1.00  0.00     0.030 C 
HETATM   26  C   UNL     1       1.738  -4.830   1.599  1.00  0.00     0.004 C 
HETATM   27  C   UNL     1       2.475  -3.544   1.994  1.00  0.00     0.038 C 
ENDBRANCH   3  19
TORSDOF 3
