REMARK  5 active torsions:
REMARK  status: ('A' for Active; 'I' for Inactive)
REMARK    1  A    between atoms: C_2  and  C_3 
REMARK    2  A    between atoms: C_9  and  N_10 
REMARK       I    between atoms: N_10  and  C_11 
REMARK       I    between atoms: C_11  and  N_13 
REMARK    3  A    between atoms: N_13  and  C_14 
REMARK    4  A    between atoms: C_14  and  C_15 
REMARK    5  A    between atoms: C_15  and  O_19 
ROOT
HETATM    1  N   UNL     1       4.757   0.714   2.347  1.00  0.00    -0.306 N 
HETATM    2  C   UNL     1       5.507   1.068   3.448  1.00  0.00     0.320 C 
HETATM    3  O   UNL     1       5.587   2.194   3.935  1.00  0.00    -0.247 OA
HETATM    4  N   UNL     1       6.173  -0.007   4.019  1.00  0.00    -0.340 N 
HETATM    5  H   UNL     1       4.646  -0.267   2.148  1.00  0.00     0.171 HD
HETATM    6  H   UNL     1       6.558  -0.681   3.371  1.00  0.00     0.164 HD
ENDROOT
BRANCH   1   7
HETATM    7  C   UNL     1       4.000   1.613   1.600  1.00  0.00     0.077 A 
HETATM    8  C   UNL     1       3.098   1.354   0.524  1.00  0.00     0.053 A 
HETATM    9  N   UNL     1       2.543   2.479   0.055  1.00  0.00    -0.301 N 
HETATM   10  N   UNL     1       3.076   3.445   0.818  1.00  0.00    -0.305 N 
ATOM     11  HN  UNL     1       1.871   2.578  -0.706  1.00  0.00     0.187 HD
HETATM   12  C   UNL     1       2.689   4.823   0.635  1.00  0.00     0.177 C 
HETATM   13  C   UNL     1       3.958   2.981   1.741  1.00  0.00     0.141 A 
BRANCH   8  14
HETATM   14  C   UNL     1       2.715   0.053  -0.101  1.00  0.00     0.056 C 
HETATM   15  C   UNL     1       3.624  -0.323  -1.261  1.00  0.00     0.011 C 
ENDBRANCH   8  14
ENDBRANCH   1   7
BRANCH   4  16
HETATM   16  C   UNL     1       7.007   0.301   5.175  1.00  0.00     0.162 C 
BRANCH  16  17
HETATM   17  C   UNL     1       7.686  -0.964   5.716  1.00  0.00     0.076 C 
HETATM   18  C   UNL     1       6.754  -2.029   6.366  1.00  0.00     0.040 C 
HETATM   19  C   UNL     1       7.696  -2.057   7.587  1.00  0.00     0.006 C 
HETATM   20  C   UNL     1       8.232  -0.684   7.152  1.00  0.00     0.040 C 
BRANCH  17  21
HETATM   21  O   UNL     1       8.626  -1.439   4.706  1.00  0.00    -0.383 OA
HETATM   22  C   UNL     1       9.522  -2.495   5.021  1.00  0.00     0.202 C 
ENDBRANCH  17  21
ENDBRANCH  16  17
ENDBRANCH   4  16
TORSDOF 5
