REMARK  6 active torsions:
REMARK  status: ('A' for Active; 'I' for Inactive)
REMARK    1  A    between atoms: C_2  and  C_3 
REMARK       I    between atoms: C_2  and  N_10 
REMARK    2  A    between atoms: C_3  and  C_4 
REMARK    3  A    between atoms: N_10  and  C_11 
REMARK    4  A    between atoms: C_11  and  C_12 
REMARK    5  A    between atoms: C_12  and  N_13 
REMARK    6  A    between atoms: C_19  and  C_20 
ROOT
HETATM    1  C   UNL     1       4.385   0.936   0.811  1.00  0.00     0.143 C 
ENDROOT
BRANCH   1   2
HETATM    2  N   UNL     1       2.936   1.009   0.840  1.00  0.00    -0.359 N 
HETATM    3  C   UNL     1       2.157   0.040   0.246  1.00  0.00     0.221 C 
HETATM    4  O   UNL     1       2.636  -0.928  -0.339  1.00  0.00    -0.273 OA
HETATM    5  H   UNL     1       2.487   1.683   1.449  1.00  0.00     0.162 HD
BRANCH   3   6
HETATM    6  C   UNL     1       0.658   0.274   0.359  1.00  0.00     0.136 C 
BRANCH   6   7
HETATM    7  C   UNL     1       0.089  -0.368   1.602  1.00  0.00    -0.075 A 
HETATM    8  C   UNL     1      -0.542   0.361   2.533  1.00  0.00    -0.023 A 
HETATM    9  C   UNL     1      -1.166  -0.191   3.767  1.00  0.00     0.027 A 
HETATM   10  C   UNL     1      -1.123  -1.703   3.952  1.00  0.00     0.004 A 
HETATM   11  C   UNL     1      -0.431  -2.553   2.891  1.00  0.00     0.005 A 
HETATM   12  C   UNL     1       0.238  -1.858   1.707  1.00  0.00     0.034 A 
ENDBRANCH   6   7
ENDBRANCH   3   6
ENDBRANCH   1   2
BRANCH   1  13
HETATM   13  C   UNL     1       4.976   1.008  -0.601  1.00  0.00     0.151 C 
BRANCH  13  14
HETATM   14  N   UNL     1       4.683   2.265  -1.252  1.00  0.00    -0.329 N 
HETATM   15  C   UNL     1       3.638   2.520  -2.084  1.00  0.00     0.201 A 
HETATM   16  N   UNL     1       3.681   3.777  -2.461  1.00  0.00    -0.295 N 
HETATM   17  N   UNL     1       4.788   4.352  -1.874  1.00  0.00    -0.288 N 
ATOM     18  HN  UNL     1       3.015   4.244  -3.077  1.00  0.00     0.187 HD
HETATM   19  C   UNL     1       5.380   3.434  -1.139  1.00  0.00     0.103 A 
ATOM     20  HN  UNL     1       5.094   5.318  -1.989  1.00  0.00     0.188 HD
BRANCH  19  21
HETATM   21  C   UNL     1       6.616   3.663  -0.282  1.00  0.00     0.055 A 
HETATM   22  C   UNL     1       6.830   5.049   0.285  1.00  0.00     0.013 A 
HETATM   23  C   UNL     1       7.722   4.552  -0.802  1.00  0.00     0.013 A 
ENDBRANCH  19  21
ENDBRANCH  13  14
ENDBRANCH   1  13
TORSDOF 6
