REMARK  1 active torsions:
REMARK  status: ('A' for Active; 'I' for Inactive)
REMARK    1  A    between atoms: C_2  and  C_9 
ROOT
HETATM    1  C   UNL     1       1.002   0.011   0.249  1.00  0.00     0.056 C 
HETATM    2  C   UNL     1       2.511   0.033   0.037  1.00  0.00     0.154 C 
HETATM    3  N   UNL     1       3.139  -1.164   0.584  1.00  0.00    -0.320 N 
HETATM    4  C   UNL     1       4.209  -0.862   1.385  1.00  0.00     0.324 C 
HETATM    5  O   UNL     1       5.034  -1.658   1.797  1.00  0.00    -0.247 OA
HETATM    6  N   UNL     1       4.198   0.470   1.633  1.00  0.00    -0.277 N 
HETATM    7  C   UNL     1       3.201   1.078   0.934  1.00  0.00     0.260 C 
HETATM    8  O   UNL     1       2.945   2.273   0.999  1.00  0.00    -0.270 OA
HETATM    9  H   UNL     1       3.135  -2.037   0.071  1.00  0.00     0.166 HD
HETATM   10  H   UNL     1       4.855   0.938   2.232  1.00  0.00     0.173 HD
ENDROOT
BRANCH   2  11
HETATM   11  C   UNL     1       2.853   0.192  -1.442  1.00  0.00     0.046 A 
HETATM   12  C   UNL     1       3.013   1.444  -2.039  1.00  0.00     0.028 A 
HETATM   13  C   UNL     1       3.306   1.518  -3.398  1.00  0.00     0.003 A 
HETATM   14  C   UNL     1       3.415   0.349  -4.138  1.00  0.00     0.017 A 
HETATM   15  C   UNL     1       3.225  -0.855  -3.486  1.00  0.00     0.088 A 
HETATM   16  N   UNL     1       2.946  -0.960  -2.167  1.00  0.00    -0.367 N 
ATOM     17  HN  UNL     1       2.810  -1.871  -1.728  1.00  0.00     0.165 HD
ENDBRANCH   2  11
TORSDOF 1
