REMARK  4 active torsions:
REMARK  status: ('A' for Active; 'I' for Inactive)
REMARK       I    between atoms: C_2  and  N_3 
REMARK    1  A    between atoms: C_2  and  C_13 
REMARK    2  A    between atoms: N_3  and  C_4 
REMARK    3  A    between atoms: C_4  and  C_5 
REMARK    4  A    between atoms: C_5  and  C_6 
ROOT
HETATM    1  C   UNL     1       3.036   1.252   0.303  1.00  0.00     0.076 A 
HETATM    2  C   UNL     1       2.492   2.251   1.026  1.00  0.00     0.022 A 
HETATM    3  C   UNL     1       3.133   3.536   1.185  1.00  0.00     0.018 A 
HETATM    4  C   UNL     1       4.316   3.757   0.600  1.00  0.00     0.092 A 
HETATM    5  N   UNL     1       4.980   2.796  -0.155  1.00  0.00    -0.341 N 
HETATM    6  C   UNL     1       6.211   3.153  -0.861  1.00  0.00     0.146 C 
HETATM    7  C   UNL     1       7.122   1.964  -0.957  1.00  0.00     0.183 C 
HETATM    8  S   UNL     1       6.268   0.722  -1.864  1.00  0.00     0.233 S 
HETATM    9  O   UNL     1       6.002   1.250  -3.188  1.00  0.00    -0.206 OA
HETATM   10  O   UNL     1       7.015  -0.509  -1.708  1.00  0.00    -0.206 OA
HETATM   11  N   UNL     1       4.875   0.567  -1.069  1.00  0.00    -0.269 N 
ATOM     12  HN  UNL     1       4.368  -0.317  -1.125  1.00  0.00     0.180 HD
HETATM   13  C   UNL     1       4.378   1.537  -0.358  1.00  0.00     0.132 A 
ENDROOT
BRANCH   1  14
HETATM   14  C   UNL     1       2.261  -0.026   0.212  1.00  0.00     0.255 C 
HETATM   15  O   UNL     1       1.072  -0.077   0.520  1.00  0.00    -0.268 OA
HETATM   16  N   UNL     1       2.958  -1.125  -0.225  1.00  0.00    -0.356 N 
HETATM   17  H   UNL     1       3.883  -0.966  -0.619  1.00  0.00     0.162 HD
BRANCH  16  18
HETATM   18  C   UNL     1       2.283  -2.379  -0.491  1.00  0.00     0.127 C 
BRANCH  18  19
HETATM   19  C   UNL     1       3.252  -3.496  -0.881  1.00  0.00     0.060 C 
BRANCH  19  20
HETATM   20  C   UNL     1       2.524  -4.782  -1.163  1.00  0.00    -0.041 A 
HETATM   21  C   UNL     1       2.055  -5.087  -2.443  1.00  0.00     0.010 A 
HETATM   22  C   UNL     1       1.347  -6.267  -2.656  1.00  0.00     0.018 A 
HETATM   23  C   UNL     1       1.128  -7.105  -1.576  1.00  0.00     0.087 A 
HETATM   24  N   UNL     1       1.564  -6.846  -0.325  1.00  0.00    -0.375 N 
HETATM   25  C   UNL     1       2.248  -5.693  -0.147  1.00  0.00     0.094 A 
ATOM     26  HN  UNL     1       1.386  -7.488   0.448  1.00  0.00     0.164 HD
ENDBRANCH  19  20
ENDBRANCH  18  19
ENDBRANCH  16  18
ENDBRANCH   1  14
TORSDOF 4
