REMARK  3 active torsions:
REMARK  status: ('A' for Active; 'I' for Inactive)
REMARK    1  A    between atoms: N_11  and  C_12 
REMARK    2  A    between atoms: C_12  and  C_13 
REMARK    3  A    between atoms: C_13  and  O_14 
ROOT
HETATM    1  C   UNL     1       0.967   0.064  -0.085  1.00  0.00     0.164 C 
HETATM    2  N   UNL     1       2.415  -0.010  -0.076  1.00  0.00    -0.269 N 
HETATM    3  C   UNL     1       3.019  -1.283  -0.076  1.00  0.00     0.332 A 
HETATM    4  O   UNL     1       2.344  -2.316  -0.086  1.00  0.00    -0.246 OA
HETATM    5  N   UNL     1       4.415  -1.323  -0.062  1.00  0.00    -0.287 N 
HETATM    6  C   UNL     1       5.118  -2.594  -0.061  1.00  0.00     0.163 C 
HETATM    7  C   UNL     1       5.123  -0.147  -0.058  1.00  0.00     0.145 A 
HETATM    8  N   UNL     1       6.480  -0.029  -0.046  1.00  0.00    -0.336 N 
ATOM      9  HN  UNL     1       7.172  -0.778  -0.030  1.00  0.00     0.168 HD
HETATM   10  C   UNL     1       6.697   1.270  -0.059  1.00  0.00     0.185 A 
HETATM   11  N   UNL     1       5.523   1.981  -0.065  1.00  0.00    -0.333 N 
HETATM   12  C   UNL     1       4.506   1.068  -0.062  1.00  0.00     0.149 A 
HETATM   13  C   UNL     1       3.093   1.215  -0.057  1.00  0.00     0.282 A 
HETATM   14  O   UNL     1       2.535   2.308  -0.025  1.00  0.00    -0.265 OA
ENDROOT
BRANCH  11  15
HETATM   15  C   UNL     1       5.424   3.428  -0.087  1.00  0.00     0.156 C 
BRANCH  15  16
HETATM   16  C   UNL     1       5.315   4.025   1.311  1.00  0.00     0.184 C 
BRANCH  16  17
HETATM   17  O   UNL     1       6.517   3.817   2.050  1.00  0.00    -0.399 OA
HETATM   18  H   UNL     1       6.501   2.904   2.392  1.00  0.00     0.209 HD
ENDBRANCH  16  17
ENDBRANCH  15  16
ENDBRANCH  11  15
TORSDOF 3
