REMARK  5 active torsions:
REMARK  status: ('A' for Active; 'I' for Inactive)
REMARK    1  A    between atoms: C_2  and  O_3 
REMARK    2  A    between atoms: O_3  and  C_4 
REMARK    3  A    between atoms: C_9  and  N_10 
REMARK    4  A    between atoms: N_10  and  C_11 
REMARK    5  A    between atoms: C_11  and  C_13 
ROOT
HETATM    1  C   UNL     1       6.120  -2.605  -0.386  1.00  0.00     0.159 A 
HETATM    2  C   UNL     1       4.770  -2.414  -0.637  1.00  0.00     0.144 A 
HETATM    3  N   UNL     1       4.281  -1.244  -1.104  1.00  0.00    -0.368 N 
ATOM      4  HN  UNL     1       3.293  -1.101  -1.312  1.00  0.00     0.164 HD
HETATM    5  C   UNL     1       5.216  -0.276  -1.272  1.00  0.00     0.136 A 
HETATM    6  C   UNL     1       6.580  -0.433  -0.995  1.00  0.00     0.119 A 
HETATM    7  N   UNL     1       7.045  -1.630  -0.565  1.00  0.00    -0.321 N 
ATOM      8  HN  UNL     1       8.036  -1.789  -0.386  1.00  0.00     0.169 HD
ENDROOT
BRANCH   6   9
HETATM    9  N   UNL     1       7.453   0.618  -1.204  1.00  0.00    -0.368 N 
HETATM   10  H   UNL     1       7.107   1.567  -1.277  1.00  0.00     0.161 HD
BRANCH   9  11
HETATM   11  C   UNL     1       8.886   0.414  -1.374  1.00  0.00     0.108 C 
HETATM   12  C   UNL     1       9.175   0.426  -2.878  1.00  0.00     0.035 C 
BRANCH  11  13
HETATM   13  C   UNL     1       9.713   1.510  -0.662  1.00  0.00     0.143 C 
HETATM   14  C   UNL     1       9.551   1.583   0.849  1.00  0.00     0.036 C 
HETATM   15  C   UNL     1       9.899   3.024   1.184  1.00  0.00     0.029 C 
HETATM   16  C   UNL     1      10.021   3.715  -0.164  1.00  0.00     0.168 C 
HETATM   17  O   UNL     1       9.399   2.841  -1.116  1.00  0.00    -0.384 OA
ENDBRANCH  11  13
ENDBRANCH   9  11
ENDBRANCH   6   9
BRANCH   1  18
HETATM   18  O   UNL     1       6.487  -3.830   0.133  1.00  0.00    -0.335 OA
BRANCH  18  19
HETATM   19  C   UNL     1       7.847  -4.164  -0.131  1.00  0.00     0.173 C 
HETATM   20  C   UNL     1       8.111  -5.528   0.486  1.00  0.00     0.034 C 
ENDBRANCH  18  19
ENDBRANCH   1  18
TORSDOF 5
