REMARK  6 active torsions:
REMARK  status: ('A' for Active; 'I' for Inactive)
REMARK    1  A    between atoms: C_7  and  O_8 
REMARK    2  A    between atoms: O_8  and  C_9 
REMARK    3  A    between atoms: C_9  and  C_10 
REMARK    4  A    between atoms: C_10  and  O_11 
REMARK    5  A    between atoms: C_10  and  C_12 
REMARK    6  A    between atoms: C_12  and  N_13 
ROOT
HETATM    1  C   UNL     1       4.733  -6.289  -0.583  1.00  0.00     0.183 C 
ENDROOT
BRANCH   1   2
HETATM    2  C   UNL     1       5.434  -4.926  -0.596  1.00  0.00     0.162 C 
BRANCH   2   3
HETATM    3  C   UNL     1       4.480  -3.752  -0.338  1.00  0.00     0.209 C 
BRANCH   3   4
HETATM    4  O   UNL     1       3.858  -3.954   0.936  1.00  0.00    -0.348 OA
BRANCH   4   5
HETATM    5  C   UNL     1       2.963  -3.006   1.360  1.00  0.00     0.075 A 
HETATM    6  C   UNL     1       2.386  -3.232   2.621  1.00  0.00    -0.029 A 
HETATM    7  C   UNL     1       1.455  -2.314   3.127  1.00  0.00     0.010 A 
HETATM    8  C   UNL     1       2.772  -4.431   3.443  1.00  0.00     0.051 C 
HETATM    9  C   UNL     1       1.115  -1.172   2.400  1.00  0.00     0.007 A 
HETATM   10  C   UNL     1       1.702  -0.929   1.157  1.00  0.00    -0.059 A 
HETATM   11  C   UNL     1       1.379   0.311   0.378  1.00  0.00     0.048 C 
HETATM   12  C   UNL     1       2.614  -1.860   0.637  1.00  0.00     0.044 A 
ENDBRANCH   4   5
ENDBRANCH   3   4
ENDBRANCH   2   3
BRANCH   2  13
HETATM   13  O   UNL     1       6.453  -4.927   0.423  1.00  0.00    -0.392 OA
HETATM   14  H   UNL     1       5.990  -4.812   1.276  1.00  0.00     0.210 HD
ENDBRANCH   2  13
ENDBRANCH   1   2
BRANCH   1  15
HETATM   15  N   UNL     1       3.698  -6.455  -1.583  1.00  0.00    -0.284 N 
HETATM   16  N   UNL     1       3.841  -5.878  -2.805  1.00  0.00    -0.308 N 
HETATM   17  C   UNL     1       2.749  -6.259  -3.478  1.00  0.00     0.122 A 
ATOM     18  HN  UNL     1       4.606  -5.289  -3.134  1.00  0.00     0.186 HD
HETATM   19  C   UNL     1       1.924  -7.080  -2.704  1.00  0.00     0.032 A 
HETATM   20  C   UNL     1       0.685  -7.757  -2.928  1.00  0.00     0.122 A 
HETATM   21  C   UNL     1       2.553  -7.191  -1.490  1.00  0.00     0.133 A 
HETATM   22  N   UNL     1       0.142  -8.471  -1.985  1.00  0.00    -0.306 N 
HETATM   23  N   UNL     1       0.788  -8.577  -0.742  1.00  0.00    -0.261 N 
ATOM     24  HN  UNL     1      -0.744  -8.949  -2.147  1.00  0.00     0.186 HD
HETATM   25  C   UNL     1       0.124  -9.381   0.264  1.00  0.00     0.181 C 
HETATM   26  C   UNL     1       2.019  -7.968  -0.413  1.00  0.00     0.290 A 
HETATM   27  O   UNL     1       2.566  -8.099   0.678  1.00  0.00    -0.264 OA
ENDBRANCH   1  15
TORSDOF 6
