REMARK  5 active torsions:
REMARK  status: ('A' for Active; 'I' for Inactive)
REMARK    1  A    between atoms: C_2  and  C_4 
REMARK    2  A    between atoms: C_4  and  N_6 
REMARK       I    between atoms: N_6  and  C_7 
REMARK    3  A    between atoms: C_7  and  C_9 
REMARK    4  A    between atoms: C_9  and  C_10 
REMARK    5  A    between atoms: C_13  and  N_16 
ROOT
HETATM    1  C   UNL     1       7.300   2.940  -2.852  1.00  0.00     0.026 A 
HETATM    2  C   UNL     1       8.059   2.758  -3.991  1.00  0.00     0.078 A 
HETATM    3  S   UNL     1       8.469   4.272  -4.667  1.00  0.00    -0.064 SA
HETATM    4  C   UNL     1       7.690   5.069  -3.368  1.00  0.00     0.153 A 
HETATM    5  N   UNL     1       7.109   4.271  -2.496  1.00  0.00    -0.339 N 
ATOM      6  HN  UNL     1       6.592   4.585  -1.675  1.00  0.00     0.168 HD
ENDROOT
BRANCH   1   7
HETATM    7  C   UNL     1       6.689   1.865  -2.013  1.00  0.00     0.160 C 
BRANCH   7   8
HETATM    8  C   UNL     1       5.176   1.749  -2.111  1.00  0.00     0.223 C 
HETATM    9  N   UNL     1       4.504   2.734  -2.799  1.00  0.00    -0.356 N 
HETATM   10  H   UNL     1       5.041   3.490  -3.215  1.00  0.00     0.162 HD
HETATM   11  O   UNL     1       4.587   0.812  -1.569  1.00  0.00    -0.273 OA
BRANCH   9  12
HETATM   12  C   UNL     1       3.052   2.747  -2.957  1.00  0.00     0.083 C 
HETATM   13  C   UNL     1       2.665   1.811  -4.107  1.00  0.00     0.032 C 
BRANCH  12  14
HETATM   14  C   UNL     1       2.546   4.197  -3.182  1.00  0.00    -0.000 C 
HETATM   15  C   UNL     1       1.016   4.260  -3.261  1.00  0.00     0.011 C 
HETATM   16  C   UNL     1       3.021   5.143  -2.070  1.00  0.00     0.011 C 
ENDBRANCH  12  14
ENDBRANCH   9  12
ENDBRANCH   7   8
ENDBRANCH   1   7
BRANCH   4  17
HETATM   17  N   UNL     1       7.794   6.437  -3.202  1.00  0.00    -0.298 N 
HETATM   18  C   UNL     1       7.528   7.095  -1.949  1.00  0.00     0.134 C 
HETATM   19  C   UNL     1       7.990   8.528  -2.123  1.00  0.00     0.029 C 
HETATM   20  C   UNL     1       8.710   8.571  -3.457  1.00  0.00     0.105 C 
HETATM   21  C   UNL     1       8.296   7.308  -4.162  1.00  0.00     0.225 C 
HETATM   22  O   UNL     1       8.451   7.140  -5.361  1.00  0.00    -0.273 OA
ENDBRANCH   4  17
TORSDOF 5
