REMARK  4 active torsions:
REMARK  status: ('A' for Active; 'I' for Inactive)
REMARK    1  A    between atoms: N_6  and  C_7 
REMARK    2  A    between atoms: C_7  and  C_8 
REMARK       I    between atoms: C_8  and  N_10 
REMARK    3  A    between atoms: N_10  and  C_11 
REMARK    4  A    between atoms: C_11  and  C_12 
ROOT
HETATM    1  C   UNL     1       7.363   0.257  -1.302  1.00  0.00     0.255 C 
ENDROOT
BRANCH   1   2
HETATM    2  N   UNL     1       7.151   0.883   0.003  1.00  0.00    -0.248 N 
HETATM    3  N   UNL     1       8.161   1.691   0.472  1.00  0.00    -0.305 N 
HETATM    4  C   UNL     1       7.922   2.354   1.557  1.00  0.00     0.133 A 
ATOM      5  HN  UNL     1       9.056   1.764  -0.013  1.00  0.00     0.186 HD
HETATM    6  C   UNL     1       6.680   2.304   2.337  1.00  0.00     0.078 A 
HETATM    7 CL   UNL     1       6.604   3.282   3.745  1.00  0.00    -0.081 Cl
HETATM    8  C   UNL     1       5.717   1.496   1.893  1.00  0.00     0.126 A 
HETATM    9  C   UNL     1       5.920   0.712   0.640  1.00  0.00     0.285 A 
HETATM   10 CL   UNL     1       4.198   1.316   2.698  1.00  0.00    -0.076 Cl
HETATM   11  O   UNL     1       5.040  -0.027   0.206  1.00  0.00    -0.265 OA
ENDBRANCH   1   2
BRANCH   1  12
HETATM   12  C   UNL     1       7.931  -1.158  -1.222  1.00  0.00     0.237 C 
HETATM   13  O   UNL     1       7.743  -1.968  -2.129  1.00  0.00    -0.272 OA
HETATM   14  N   UNL     1       8.795  -1.401  -0.172  1.00  0.00    -0.359 N 
HETATM   15  H   UNL     1       8.934  -0.659   0.506  1.00  0.00     0.162 HD
BRANCH  14  16
HETATM   16  C   UNL     1       9.391  -2.704   0.036  1.00  0.00     0.127 C 
BRANCH  16  17
HETATM   17  C   UNL     1      10.931  -2.717  -0.053  1.00  0.00     0.003 C 
HETATM   18  C   UNL     1      11.491  -2.120  -1.355  1.00  0.00     0.006 C 
HETATM   19  C   UNL     1      11.196  -2.981  -2.581  1.00  0.00     0.000 C 
HETATM   20  C   UNL     1      11.664  -4.422  -2.397  1.00  0.00     0.000 C 
HETATM   21  C   UNL     1      11.160  -5.041  -1.096  1.00  0.00     0.000 C 
HETATM   22  C   UNL     1      11.464  -4.154   0.114  1.00  0.00     0.006 C 
ENDBRANCH  16  17
ENDBRANCH  14  16
ENDBRANCH   1  12
TORSDOF 4
