REMARK  5 active torsions:
REMARK  status: ('A' for Active; 'I' for Inactive)
REMARK    1  A    between atoms: C_2  and  C_3 
REMARK    2  A    between atoms: C_2  and  N_10 
REMARK    3  A    between atoms: C_3  and  N_4 
REMARK    4  A    between atoms: N_10  and  S_11 
REMARK    5  A    between atoms: S_11  and  N_14 
ROOT
HETATM    1  N   UNL     1       3.240  -0.945   1.132  1.00  0.00    -0.201 NA
HETATM    2  H   UNL     1       2.929  -1.905   0.962  1.00  0.00     0.141 HD
ENDROOT
BRANCH   1   3
HETATM    3  C   UNL     1       2.517  -0.004   0.201  1.00  0.00     0.088 C 
HETATM    4  C   UNL     1       1.007  -0.186   0.394  1.00  0.00     0.029 C 
BRANCH   3   5
HETATM    5  C   UNL     1       2.913   1.479   0.317  1.00  0.00     0.168 C 
BRANCH   5   6
HETATM    6  N   UNL     1       2.596   2.160   1.557  1.00  0.00    -0.302 N 
HETATM    7  C   UNL     1       2.604   1.669   2.835  1.00  0.00     0.111 A 
HETATM    8  C   UNL     1       2.216   2.704   3.651  1.00  0.00     0.037 A 
HETATM    9  C   UNL     1       2.021   3.788   2.780  1.00  0.00     0.108 A 
HETATM   10  N   UNL     1       2.242   3.462   1.505  1.00  0.00    -0.310 N 
ATOM     11  HN  UNL     1       2.162   4.058   0.681  1.00  0.00     0.186 HD
ENDBRANCH   5   6
ENDBRANCH   3   5
ENDBRANCH   1   3
BRANCH   1  12
HETATM   12  S   UNL     1       4.916  -0.977   0.980  1.00  0.00     0.281 S 
HETATM   13  O   UNL     1       5.188  -1.575  -0.303  1.00  0.00    -0.194 OA
HETATM   14  O   UNL     1       5.447   0.308   1.349  1.00  0.00    -0.194 OA
BRANCH  12  15
HETATM   15  N   UNL     1       5.294  -2.088   2.184  1.00  0.00    -0.194 NA
HETATM   16  C   UNL     1       5.046  -1.674   3.605  1.00  0.00     0.134 C 
HETATM   17  C   UNL     1       6.150  -0.754   4.147  1.00  0.00     0.183 C 
HETATM   18  O   UNL     1       7.451  -1.342   3.994  1.00  0.00    -0.389 OA
HETATM   19  C   UNL     1       7.718  -1.644   2.617  1.00  0.00     0.183 C 
HETATM   20  C   UNL     1       6.687  -2.641   2.077  1.00  0.00     0.134 C 
ENDBRANCH  12  15
ENDBRANCH   1  12
TORSDOF 5
