REMARK  5 active torsions:
REMARK  status: ('A' for Active; 'I' for Inactive)
REMARK    1  A    between atoms: C_6  and  C_7 
REMARK    2  A    between atoms: C_7  and  C_8 
REMARK    3  A    between atoms: C_8  and  N_9 
REMARK       I    between atoms: N_9  and  C_10 
REMARK       I    between atoms: C_10  and  N_12 
REMARK    4  A    between atoms: N_12  and  C_13 
REMARK    5  A    between atoms: C_13  and  C_14 
ROOT
HETATM    1  N   UNL     1       6.469  -4.077  -0.024  1.00  0.00    -0.343 N 
HETATM    2  C   UNL     1       6.144  -5.403  -0.067  1.00  0.00     0.316 C 
HETATM    3  O   UNL     1       4.996  -5.821  -0.094  1.00  0.00    -0.247 OA
HETATM    4  N   UNL     1       7.255  -6.195  -0.139  1.00  0.00    -0.342 N 
HETATM    5  H   UNL     1       7.441  -3.808  -0.076  1.00  0.00     0.164 HD
HETATM    6  H   UNL     1       8.097  -5.842   0.296  1.00  0.00     0.164 HD
ENDROOT
BRANCH   1   7
HETATM    7  C   UNL     1       5.460  -3.035  -0.046  1.00  0.00     0.131 C 
BRANCH   7   8
HETATM    8  C   UNL     1       4.928  -2.683   1.342  1.00  0.00     0.084 C 
BRANCH   8   9
HETATM    9  C   UNL     1       5.985  -2.047   2.192  1.00  0.00     0.052 A 
HETATM   10  N   UNL     1       6.636  -0.948   1.869  1.00  0.00    -0.363 N 
HETATM   11  C   UNL     1       7.533  -0.627   2.869  1.00  0.00     0.102 A 
ATOM     12  HN  UNL     1       6.498  -0.415   1.010  1.00  0.00     0.165 HD
HETATM   13  C   UNL     1       7.557  -1.485   3.948  1.00  0.00    -0.004 A 
HETATM   14  C   UNL     1       8.381  -1.434   5.181  1.00  0.00     0.058 C 
HETATM   15  S   UNL     1       6.420  -2.742   3.703  1.00  0.00    -0.080 SA
ENDBRANCH   8   9
ENDBRANCH   7   8
ENDBRANCH   1   7
BRANCH   4  16
HETATM   16  C   UNL     1       7.147  -7.640  -0.243  1.00  0.00     0.144 C 
BRANCH  16  17
HETATM   17  C   UNL     1       8.343  -8.267  -0.989  1.00  0.00     0.020 C 
HETATM   18  C   UNL     1       8.424  -7.738  -2.429  1.00  0.00     0.028 C 
HETATM   19  C   UNL     1       8.269  -9.801  -0.974  1.00  0.00     0.022 C 
HETATM   20  C   UNL     1       9.668 -10.425  -0.913  1.00  0.00     0.012 C 
HETATM   21  C   UNL     1      10.747  -9.361  -0.794  1.00  0.00     0.075 C 
HETATM   22  S   UNL     1       9.911  -7.921  -0.112  1.00  0.00    -0.158 SA
ENDBRANCH  16  17
ENDBRANCH   4  16
TORSDOF 5
