REMARK  5 active torsions:
REMARK  status: ('A' for Active; 'I' for Inactive)
REMARK    1  A    between atoms: C_2  and  C_3 
REMARK    2  A    between atoms: C_3  and  N_4 
REMARK       I    between atoms: N_4  and  C_5 
REMARK    3  A    between atoms: C_5  and  C_7 
REMARK    4  A    between atoms: C_7  and  C_8 
REMARK    5  A    between atoms: C_11  and  N_14 
ROOT
HETATM    1  C   UNL     1       7.365   0.530  -4.083  1.00  0.00     0.026 A 
HETATM    2  C   UNL     1       7.444   1.796  -4.629  1.00  0.00     0.078 A 
HETATM    3  S   UNL     1       8.045   1.707  -6.227  1.00  0.00    -0.064 SA
HETATM    4  C   UNL     1       8.132   0.005  -6.107  1.00  0.00     0.153 A 
HETATM    5  N   UNL     1       7.834  -0.485  -4.919  1.00  0.00    -0.339 N 
ATOM      6  HN  UNL     1       7.932  -1.464  -4.650  1.00  0.00     0.168 HD
ENDROOT
BRANCH   1   7
HETATM    7  C   UNL     1       6.807   0.170  -2.742  1.00  0.00     0.160 C 
BRANCH   7   8
HETATM    8  C   UNL     1       7.828  -0.399  -1.775  1.00  0.00     0.223 C 
HETATM    9  N   UNL     1       8.815  -1.176  -2.337  1.00  0.00    -0.361 N 
HETATM   10  H   UNL     1       8.790  -1.314  -3.346  1.00  0.00     0.162 HD
HETATM   11  O   UNL     1       7.724  -0.224  -0.563  1.00  0.00    -0.273 OA
BRANCH   9  12
HETATM   12  C   UNL     1       9.829  -1.852  -1.561  1.00  0.00     0.122 C 
BRANCH  12  13
HETATM   13  C   UNL     1       9.389  -3.248  -1.123  1.00  0.00     0.015 C 
HETATM   14  C   UNL     1       9.152  -4.185  -2.299  1.00  0.00     0.006 C 
ENDBRANCH  12  13
ENDBRANCH   9  12
ENDBRANCH   7   8
ENDBRANCH   1   7
BRANCH   4  15
HETATM   15  N   UNL     1       8.453  -0.798  -7.189  1.00  0.00    -0.298 N 
HETATM   16  C   UNL     1       8.605  -2.228  -7.079  1.00  0.00     0.134 C 
HETATM   17  C   UNL     1       8.611  -2.760  -8.497  1.00  0.00     0.029 C 
HETATM   18  C   UNL     1       8.100  -1.618  -9.351  1.00  0.00     0.105 C 
HETATM   19  C   UNL     1       8.313  -0.384  -8.513  1.00  0.00     0.225 C 
HETATM   20  O   UNL     1       8.247   0.741  -8.983  1.00  0.00    -0.273 OA
ENDBRANCH   4  15
TORSDOF 5
