REMARK  5 active torsions:
REMARK  status: ('A' for Active; 'I' for Inactive)
REMARK    1  A    between atoms: O_2  and  C_3 
REMARK    2  A    between atoms: C_3  and  C_4 
REMARK    3  A    between atoms: C_4  and  O_5 
REMARK    4  A    between atoms: O_5  and  C_6 
REMARK    5  A    between atoms: C_9  and  N_10 
REMARK       I    between atoms: N_10  and  C_11 
REMARK       I    between atoms: C_11  and  N_13 
ROOT
HETATM    1  C   UNL     1       6.383   2.271   1.797  1.00  0.00     0.141 A 
HETATM    2  C   UNL     1       6.865   3.564   1.768  1.00  0.00     0.058 A 
HETATM    3  C   UNL     1       8.244   3.761   1.792  1.00  0.00     0.035 A 
HETATM    4  C   UNL     1       9.113   2.670   1.842  1.00  0.00     0.051 A 
HETATM    5  C   UNL     1       8.518   1.408   1.831  1.00  0.00     0.119 A 
HETATM    6  N   UNL     1       7.176   1.179   1.814  1.00  0.00    -0.345 N 
ATOM      7  HN  UNL     1       6.791   0.234   1.814  1.00  0.00     0.167 HD
ENDROOT
BRANCH   4   8
HETATM    8  N   UNL     1      10.530   2.798   1.887  1.00  0.00    -0.307 N 
HETATM    9  C   UNL     1      11.200   3.957   2.205  1.00  0.00     0.323 C 
HETATM   10  O   UNL     1      10.627   4.983   2.574  1.00  0.00    -0.247 OA
HETATM   11  N   UNL     1      12.578   3.945   2.101  1.00  0.00    -0.324 N 
HETATM   12  C   UNL     1      13.465   2.867   1.658  1.00  0.00     0.147 C 
HETATM   13  C   UNL     1      13.268   5.224   2.337  1.00  0.00     0.230 C 
HETATM   14  C   UNL     1      14.607   2.683   2.666  1.00  0.00     0.142 C 
HETATM   15  N   UNL     1      15.252   3.925   3.041  1.00  0.00    -0.358 N 
HETATM   16  C   UNL     1      14.549   5.101   3.163  1.00  0.00     0.235 C 
HETATM   17  H   UNL     1      16.079   3.899   3.625  1.00  0.00     0.162 HD
HETATM   18  O   UNL     1      15.044   6.045   3.773  1.00  0.00    -0.272 OA
HETATM   19  H   UNL     1      11.053   1.938   1.866  1.00  0.00     0.170 HD
ENDBRANCH   4   8
BRANCH   1  20
HETATM   20  O   UNL     1       5.013   2.143   1.723  1.00  0.00    -0.334 OA
BRANCH  20  21
HETATM   21  C   UNL     1       4.528   0.918   2.269  1.00  0.00     0.203 C 
BRANCH  21  22
HETATM   22  C   UNL     1       3.004   0.934   2.163  1.00  0.00     0.193 C 
BRANCH  22  23
HETATM   23  O   UNL     1       2.463  -0.251   2.744  1.00  0.00    -0.394 OA
HETATM   24  C   UNL     1       1.044  -0.279   2.647  1.00  0.00     0.201 C 
ENDBRANCH  22  23
ENDBRANCH  21  22
ENDBRANCH  20  21
ENDBRANCH   1  20
TORSDOF 5
