REMARK  5 active torsions:
REMARK  status: ('A' for Active; 'I' for Inactive)
REMARK    1  A    between atoms: C_2  and  C_3 
REMARK    2  A    between atoms: C_6  and  C_7 
REMARK    3  A    between atoms: C_7  and  C_8 
REMARK    4  A    between atoms: C_8  and  N_9 
REMARK       I    between atoms: N_9  and  C_10 
REMARK    5  A    between atoms: C_10  and  C_12 
ROOT
HETATM    1  N   UNL     1       4.374   6.312  -3.359  1.00  0.00    -0.360 N 
HETATM    2  C   UNL     1       4.271   7.191  -4.420  1.00  0.00     0.222 C 
HETATM    3  O   UNL     1       3.965   6.847  -5.557  1.00  0.00    -0.273 OA
HETATM    4  H   UNL     1       4.603   6.676  -2.442  1.00  0.00     0.162 HD
ENDROOT
BRANCH   1   5
HETATM    5  C   UNL     1       4.086   4.887  -3.470  1.00  0.00     0.128 C 
BRANCH   5   6
HETATM    6  C   UNL     1       2.599   4.599  -3.677  1.00  0.00     0.077 C 
BRANCH   6   7
HETATM    7  C   UNL     1       2.272   3.138  -3.756  1.00  0.00     0.018 A 
HETATM    8  N   UNL     1       2.447   2.329  -2.639  1.00  0.00    -0.357 N 
HETATM    9  C   UNL     1       2.035   1.103  -2.899  1.00  0.00     0.050 A 
ATOM     10  HN  UNL     1       2.837   2.638  -1.749  1.00  0.00     0.166 HD
HETATM   11  S   UNL     1       1.435   0.848  -4.491  1.00  0.00    -0.087 SA
HETATM   12  C   UNL     1       1.734   2.491  -4.854  1.00  0.00     0.076 A 
BRANCH   9  13
HETATM   13  C   UNL     1       2.036  -0.020  -1.908  1.00  0.00     0.060 C 
HETATM   14  C   UNL     1       3.327  -0.821  -1.956  1.00  0.00     0.012 C 
ENDBRANCH   9  13
ENDBRANCH   6   7
ENDBRANCH   5   6
ENDBRANCH   1   5
BRANCH   2  15
HETATM   15  C   UNL     1       4.503   8.639  -4.008  1.00  0.00     0.082 C 
HETATM   16  C   UNL     1       4.312   9.728  -5.083  1.00  0.00     0.019 C 
HETATM   17  C   UNL     1       5.544  10.643  -4.874  1.00  0.00    -0.013 C 
HETATM   18  C   UNL     1       6.761   9.973  -5.519  1.00  0.00     0.005 C 
HETATM   19  C   UNL     1       5.866  10.457  -3.391  1.00  0.00     0.010 C 
HETATM   20  C   UNL     1       6.963   8.734  -4.634  1.00  0.00     0.006 C 
HETATM   21  C   UNL     1       5.930   8.932  -3.501  1.00  0.00    -0.001 C 
ENDBRANCH   2  15
TORSDOF 5
