REMARK  4 active torsions:
REMARK  status: ('A' for Active; 'I' for Inactive)
REMARK    1  A    between atoms: C_6  and  N_7 
REMARK    2  A    between atoms: N_7  and  S_8 
REMARK    3  A    between atoms: S_8  and  C_11 
REMARK    4  A    between atoms: C_11  and  C_12 
ROOT
HETATM    1  N   UNL     1       3.012  -2.968  -2.485  1.00  0.00    -0.215 NA
HETATM    2  H   UNL     1       2.655  -3.689  -1.853  1.00  0.00     0.140 HD
ENDROOT
BRANCH   1   3
HETATM    3  C   UNL     1       2.531  -1.615  -2.000  1.00  0.00     0.075 C 
HETATM    4  C   UNL     1       3.070  -0.482  -2.889  1.00  0.00     0.021 C 
HETATM    5  C   UNL     1       2.675   0.906  -2.402  1.00  0.00     0.002 C 
HETATM    6  C   UNL     1       3.057   1.127  -0.947  1.00  0.00     0.005 C 
HETATM    7  C   UNL     1       2.506   0.029  -0.026  1.00  0.00    -0.013 C 
HETATM    8  C   UNL     1       0.982   0.162   0.124  1.00  0.00     0.010 C 
HETATM    9  C   UNL     1       2.968  -1.373  -0.527  1.00  0.00     0.004 C 
HETATM   10  C   UNL     1       2.506  -2.470   0.441  1.00  0.00     0.012 C 
ENDBRANCH   1   3
BRANCH   1  11
HETATM   11  S   UNL     1       2.508  -3.369  -4.080  1.00  0.00     0.215 S 
HETATM   12  O   UNL     1       1.062  -3.337  -4.048  1.00  0.00    -0.211 OA
HETATM   13  O   UNL     1       3.266  -2.542  -4.994  1.00  0.00    -0.211 OA
BRANCH  11  14
HETATM   14  C   UNL     1       3.067  -5.066  -4.279  1.00  0.00     0.216 C 
BRANCH  14  15
HETATM   15  C   UNL     1       2.705  -5.558  -5.637  1.00  0.00     0.049 A 
HETATM   16  C   UNL     1       3.086  -5.039  -6.900  1.00  0.00     0.054 A 
HETATM   17  C   UNL     1       2.436  -5.835  -7.805  1.00  0.00     0.169 A 
HETATM   18  O   UNL     1       1.743  -6.793  -7.146  1.00  0.00    -0.250 OA
HETATM   19  N   UNL     1       1.920  -6.635  -5.781  1.00  0.00    -0.265 N 
ATOM     20  HN  UNL     1       1.533  -7.218  -5.039  1.00  0.00     0.194 HD
ENDBRANCH  14  15
ENDBRANCH  11  14
ENDBRANCH   1  11
TORSDOF 4
