REMARK  5 active torsions:
REMARK  status: ('A' for Active; 'I' for Inactive)
REMARK    1  A    between atoms: C_8  and  N_9 
REMARK       I    between atoms: N_9  and  C_10 
REMARK       I    between atoms: C_10  and  N_12 
REMARK    2  A    between atoms: N_12  and  C_13 
REMARK    3  A    between atoms: C_13  and  C_14 
REMARK    4  A    between atoms: N_17  and  C_18 
REMARK    5  A    between atoms: C_18  and  C_19 
ROOT
HETATM    1  N   UNL     1       5.466   2.413   0.204  1.00  0.00    -0.295 N 
HETATM    2  C   UNL     1       6.804   2.388  -0.070  1.00  0.00     0.321 C 
HETATM    3  O   UNL     1       7.380   1.314  -0.221  1.00  0.00    -0.247 OA
HETATM    4  N   UNL     1       7.439   3.589  -0.100  1.00  0.00    -0.342 N 
HETATM    5  H   UNL     1       5.068   1.493   0.320  1.00  0.00     0.172 HD
HETATM    6  H   UNL     1       6.829   4.402  -0.052  1.00  0.00     0.164 HD
ENDROOT
BRANCH   1   7
HETATM    7  C   UNL     1       4.654   3.528   0.427  1.00  0.00     0.109 A 
HETATM    8  N   UNL     1       5.129   4.760   0.132  1.00  0.00    -0.346 N 
HETATM    9  C   UNL     1       4.344   5.831   0.376  1.00  0.00     0.007 A 
ATOM     10  HN  UNL     1       6.061   4.877  -0.266  1.00  0.00     0.167 HD
HETATM   11  C   UNL     1       3.086   5.718   0.949  1.00  0.00     0.031 A 
HETATM   12  C   UNL     1       4.919   7.161  -0.007  1.00  0.00     0.068 C 
HETATM   13  C   UNL     1       2.601   4.447   1.265  1.00  0.00    -0.057 A 
HETATM   14  C   UNL     1       1.268   4.274   1.929  1.00  0.00     0.048 C 
HETATM   15  C   UNL     1       3.394   3.332   0.975  1.00  0.00     0.055 A 
ENDBRANCH   1   7
BRANCH   4  16
HETATM   16  C   UNL     1       8.863   3.768  -0.186  1.00  0.00     0.130 C 
BRANCH  16  17
HETATM   17  C   UNL     1       9.377   4.089  -1.584  1.00  0.00     0.033 C 
HETATM   18  C   UNL     1       8.817   5.363  -2.207  1.00  0.00     0.038 C 
HETATM   19  C   UNL     1       8.853   5.108  -3.713  1.00  0.00     0.273 C 
HETATM   20  N   UNL     1       9.356   3.739  -3.923  1.00  0.00     0.097 N 
HETATM   21  C   UNL     1       9.095   3.037  -2.648  1.00  0.00     0.279 C 
BRANCH  20  22
HETATM   22  C   UNL     1      10.798   3.701  -4.283  1.00  0.00     0.389 C 
BRANCH  22  23
HETATM   23  C   UNL     1      11.265   4.406  -5.580  1.00  0.00     0.413 C 
HETATM   24  F   UNL     1      10.257   4.962  -6.286  1.00  0.00    -0.169 F 
HETATM   25  F   UNL     1      12.142   5.398  -5.284  1.00  0.00    -0.169 F 
HETATM   26  F   UNL     1      11.907   3.540  -6.400  1.00  0.00    -0.169 F 
ENDBRANCH  22  23
ENDBRANCH  20  22
ENDBRANCH  16  17
ENDBRANCH   4  16
TORSDOF 5
