REMARK  4 active torsions:
REMARK  status: ('A' for Active; 'I' for Inactive)
REMARK    1  A    between atoms: C_2  and  N_3 
REMARK       I    between atoms: N_3  and  C_4 
REMARK       I    between atoms: C_4  and  N_6 
REMARK    2  A    between atoms: N_6  and  C_7 
REMARK    3  A    between atoms: C_7  and  C_8 
REMARK    4  A    between atoms: C_8  and  C_9 
ROOT
HETATM    1  C   UNL     1       8.127   4.453  -2.514  1.00  0.00     0.019 A 
HETATM    2  C   UNL     1       8.562   5.762  -2.535  1.00  0.00     0.078 A 
HETATM    3  S   UNL     1      10.260   5.820  -2.644  1.00  0.00    -0.064 SA
HETATM    4  C   UNL     1      10.333   4.086  -2.706  1.00  0.00     0.146 A 
HETATM    5  N   UNL     1       9.146   3.510  -2.621  1.00  0.00    -0.340 N 
ATOM      6  HN  UNL     1       8.995   2.501  -2.632  1.00  0.00     0.168 HD
HETATM    7  N   UNL     1      11.506   3.415  -2.842  1.00  0.00    -0.361 N 
HETATM    8  C   UNL     1      11.558   1.965  -2.924  1.00  0.00     0.125 C 
HETATM    9  C   UNL     1      12.980   1.657  -3.411  1.00  0.00     0.021 C 
HETATM   10  C   UNL     1      13.519   2.983  -3.925  1.00  0.00     0.021 C 
HETATM   11  C   UNL     1      12.803   4.018  -3.069  1.00  0.00     0.125 C 
ENDROOT
BRANCH   1  12
HETATM   12  C   UNL     1       6.688   4.036  -2.437  1.00  0.00     0.077 C 
BRANCH  12  13
HETATM   13  C   UNL     1       6.435   2.735  -1.674  1.00  0.00     0.130 C 
BRANCH  13  14
HETATM   14  N   UNL     1       5.012   2.436  -1.550  1.00  0.00    -0.343 N 
HETATM   15  C   UNL     1       4.244   3.001  -0.566  1.00  0.00     0.316 C 
HETATM   16  N   UNL     1       2.925   2.630  -0.648  1.00  0.00    -0.344 N 
HETATM   17  O   UNL     1       4.686   3.753   0.286  1.00  0.00    -0.247 OA
HETATM   18  H   UNL     1       2.659   1.928  -1.316  1.00  0.00     0.164 HD
HETATM   19  H   UNL     1       4.565   1.900  -2.277  1.00  0.00     0.164 HD
BRANCH  16  20
HETATM   20  C   UNL     1       1.956   3.043   0.345  1.00  0.00     0.120 C 
HETATM   21  C   UNL     1       1.878   2.064   1.503  1.00  0.00     0.026 C 
ENDBRANCH  16  20
ENDBRANCH  13  14
ENDBRANCH  12  13
ENDBRANCH   1  12
TORSDOF 4
