REMARK  6 active torsions:
REMARK  status: ('A' for Active; 'I' for Inactive)
REMARK       I    between atoms: N_1  and  C_2 
REMARK    1  A    between atoms: C_2  and  C_4 
REMARK    2  A    between atoms: C_7  and  C_20 
REMARK    3  A    between atoms: N_8  and  C_9 
REMARK    4  A    between atoms: C_9  and  C_10 
REMARK    5  A    between atoms: C_10  and  O_11 
REMARK    6  A    between atoms: C_10  and  C_12 
ROOT
HETATM    1  C   UNL     1       2.937   1.338   0.501  1.00  0.00     0.100 C 
HETATM    2  C   UNL     1       2.667   2.567   0.037  1.00  0.00     0.025 C 
HETATM    3  C   UNL     1       3.291   3.734   0.597  1.00  0.00     0.036 C 
HETATM    4  C   UNL     1       4.266   3.639   1.522  1.00  0.00     0.121 C 
HETATM    5  N   UNL     1       4.636   2.358   1.981  1.00  0.00    -0.307 N 
HETATM    6  C   UNL     1       3.939   1.195   1.603  1.00  0.00     0.264 C 
HETATM    7  O   UNL     1       4.169   0.087   2.092  1.00  0.00    -0.267 OA
ENDROOT
BRANCH   5   8
HETATM    8  C   UNL     1       5.818   2.142   2.827  1.00  0.00     0.169 C 
BRANCH   8   9
HETATM    9  C   UNL     1       5.564   2.202   4.352  1.00  0.00     0.169 C 
BRANCH   9  10
HETATM   10  O   UNL     1       4.604   1.213   4.740  1.00  0.00    -0.389 OA
HETATM   11  H   UNL     1       4.963   0.345   4.477  1.00  0.00     0.210 HD
ENDBRANCH   9  10
BRANCH   9  12
HETATM   12  C   UNL     1       6.802   2.005   5.216  1.00  0.00    -0.028 A 
HETATM   13  C   UNL     1       8.093   1.820   4.692  1.00  0.00     0.010 A 
HETATM   14  C   UNL     1       9.190   1.637   5.537  1.00  0.00     0.001 A 
HETATM   15  C   UNL     1       9.021   1.637   6.917  1.00  0.00     0.000 A 
HETATM   16  C   UNL     1       7.753   1.829   7.457  1.00  0.00     0.001 A 
HETATM   17  C   UNL     1       6.655   2.014   6.613  1.00  0.00     0.010 A 
ENDBRANCH   9  12
ENDBRANCH   8   9
ENDBRANCH   5   8
BRANCH   4  18
HETATM   18  C   UNL     1       4.896   4.932   2.020  1.00  0.00     0.432 C 
HETATM   19  F   UNL     1       5.790   4.779   3.026  1.00  0.00    -0.165 F 
HETATM   20  F   UNL     1       5.551   5.574   1.017  1.00  0.00    -0.165 F 
HETATM   21  F   UNL     1       3.952   5.795   2.481  1.00  0.00    -0.165 F 
ENDBRANCH   4  18
BRANCH   1  22
HETATM   22  C   UNL     1       2.276   0.179  -0.157  1.00  0.00     0.254 C 
HETATM   23  N   UNL     1       2.320  -1.002   0.513  1.00  0.00    -0.366 N 
HETATM   24  H   UNL     1       1.945  -1.829   0.070  1.00  0.00     0.159 HD
HETATM   25  H   UNL     1       2.854  -1.104   1.374  1.00  0.00     0.159 HD
HETATM   26  O   UNL     1       1.720   0.263  -1.247  1.00  0.00    -0.268 OA
ENDBRANCH   1  22
TORSDOF 6
