REMARK  5 active torsions:
REMARK  status: ('A' for Active; 'I' for Inactive)
REMARK       I    between atoms: C_2  and  N_3 
REMARK    1  A    between atoms: C_2  and  C_13 
REMARK    2  A    between atoms: N_3  and  C_4 
REMARK    3  A    between atoms: C_4  and  C_5 
REMARK    4  A    between atoms: C_5  and  C_6 
REMARK       I    between atoms: N_17  and  C_19 
REMARK    5  A    between atoms: C_19  and  C_21 
ROOT
HETATM    1  O   UNL     1       2.024   0.032   1.140  1.00  0.00    -0.273 OA
HETATM    2  C   UNL     1       2.103   0.082  -0.081  1.00  0.00     0.223 C 
HETATM    3  N   UNL     1       1.344   0.974  -0.817  1.00  0.00    -0.360 N 
HETATM    4  H   UNL     1       1.661   1.201  -1.752  1.00  0.00     0.162 HD
ENDROOT
BRANCH   2   5
HETATM    5  C   UNL     1       2.998  -0.827  -0.924  1.00  0.00     0.096 C 
HETATM    6  C   UNL     1       2.158  -1.730  -1.848  1.00  0.00     0.017 C 
HETATM    7  C   UNL     1       1.449  -2.847  -1.072  1.00  0.00     0.021 C 
HETATM    8  C   UNL     1       2.438  -3.635  -0.217  1.00  0.00     0.126 C 
HETATM    9  N   UNL     1       3.191  -2.734   0.647  1.00  0.00    -0.351 N 
HETATM   10  C   UNL     1       3.929  -1.681  -0.049  1.00  0.00     0.139 C 
HETATM   11  C   UNL     1       3.154  -2.694   2.040  1.00  0.00     0.224 C 
HETATM   12  O   UNL     1       3.941  -2.020   2.702  1.00  0.00    -0.273 OA
BRANCH  11  13
HETATM   13  C   UNL     1       2.134  -3.520   2.755  1.00  0.00     0.078 A 
HETATM   14  C   UNL     1       1.749  -3.184   4.183  1.00  0.00     0.015 A 
HETATM   15  C   UNL     1       2.582  -4.400   3.902  1.00  0.00     0.015 A 
ENDBRANCH  11  13
ENDBRANCH   2   5
BRANCH   3  16
HETATM   16  C   UNL     1       0.475   1.916  -0.129  1.00  0.00     0.128 C 
BRANCH  16  17
HETATM   17  C   UNL     1      -0.375   2.721  -1.102  1.00  0.00     0.076 C 
BRANCH  17  18
HETATM   18  C   UNL     1      -1.300   3.668  -0.386  1.00  0.00     0.010 A 
HETATM   19  C   UNL     1      -2.595   3.280  -0.051  1.00  0.00     0.025 A 
HETATM   20  C   UNL     1      -3.426   4.196   0.590  1.00  0.00     0.003 A 
HETATM   21  C   UNL     1      -2.940   5.462   0.890  1.00  0.00     0.017 A 
HETATM   22  C   UNL     1      -1.636   5.761   0.538  1.00  0.00     0.088 A 
HETATM   23  N   UNL     1      -0.809   4.896  -0.092  1.00  0.00    -0.369 N 
ATOM     24  HN  UNL     1       0.146   5.158  -0.336  1.00  0.00     0.165 HD
ENDBRANCH  17  18
ENDBRANCH  16  17
ENDBRANCH   3  16
TORSDOF 5
