REMARK  8 active torsions:
REMARK  status: ('A' for Active; 'I' for Inactive)
REMARK    1  A    between atoms: C_7  and  N_8 
REMARK       I    between atoms: N_8  and  C_9 
REMARK    2  A    between atoms: C_9  and  C_11 
REMARK    3  A    between atoms: C_11  and  S_12 
REMARK    4  A    between atoms: S_12  and  C_13 
REMARK    5  A    between atoms: C_18  and  C_19 
REMARK    6  A    between atoms: C_19  and  C_20 
REMARK    7  A    between atoms: C_20  and  O_21 
REMARK    8  A    between atoms: C_22  and  O_23 
ROOT
HETATM    1  C   UNL     1      -0.017  -4.167   4.228  1.00  0.00     0.146 A 
HETATM    2  N   UNL     1      -1.338  -4.207   4.445  1.00  0.00    -0.340 N 
ATOM      3  HN  UNL     1      -1.983  -3.685   3.851  1.00  0.00     0.167 HD
HETATM    4  C   UNL     1      -1.793  -4.958   5.472  1.00  0.00     0.018 A 
HETATM    5  C   UNL     1      -3.279  -4.884   5.681  1.00  0.00     0.069 C 
HETATM    6  C   UNL     1      -0.948  -5.698   6.291  1.00  0.00     0.017 A 
HETATM    7  C   UNL     1       0.396  -5.584   5.955  1.00  0.00     0.150 A 
HETATM    8  N   UNL     1       0.879  -4.848   4.940  1.00  0.00    -0.317 N 
ATOM      9  HN  UNL     1       1.876  -4.813   4.727  1.00  0.00     0.170 HD
ENDROOT
BRANCH   1  10
HETATM   10  S   UNL     1       0.506  -3.084   2.922  1.00  0.00    -0.085 SA
BRANCH  10  11
HETATM   11  C   UNL     1       2.309  -3.329   2.961  1.00  0.00     0.185 C 
BRANCH  11  12
HETATM   12  C   UNL     1       2.992  -2.320   2.048  1.00  0.00     0.227 C 
HETATM   13  N   UNL     1       2.588  -2.368   0.720  1.00  0.00    -0.355 N 
HETATM   14  H   UNL     1       1.714  -2.846   0.529  1.00  0.00     0.162 HD
HETATM   15  O   UNL     1       3.874  -1.562   2.448  1.00  0.00    -0.273 OA
BRANCH  13  16
HETATM   16  C   UNL     1       3.093  -1.427  -0.272  1.00  0.00     0.088 C 
HETATM   17  C   UNL     1       2.380  -0.055  -0.211  1.00  0.00     0.004 C 
HETATM   18  C   UNL     1       0.858  -0.145  -0.385  1.00  0.00     0.012 C 
HETATM   19  C   UNL     1       2.991   0.890  -1.263  1.00  0.00     0.006 C 
HETATM   20  C   UNL     1       2.977   0.300  -2.673  1.00  0.00     0.001 C 
HETATM   21  C   UNL     1       3.620  -1.083  -2.722  1.00  0.00     0.002 C 
HETATM   22  C   UNL     1       3.037  -2.036  -1.679  1.00  0.00     0.025 C 
ENDBRANCH  13  16
ENDBRANCH  11  12
ENDBRANCH  10  11
ENDBRANCH   1  10
BRANCH   7  23
HETATM   23  O   UNL     1       1.388  -6.184   6.674  1.00  0.00    -0.346 OA
HETATM   24  H   UNL     1       1.000  -6.831   7.296  1.00  0.00     0.219 HD
ENDBRANCH   7  23
BRANCH   6  25
HETATM   25  C   UNL     1      -1.446  -6.467   7.493  1.00  0.00     0.071 C 
BRANCH  25  26
HETATM   26  C   UNL     1      -1.236  -7.981   7.434  1.00  0.00     0.169 C 
BRANCH  26  27
HETATM   27  O   UNL     1       0.156  -8.281   7.434  1.00  0.00    -0.401 OA
HETATM   28  H   UNL     1       0.356  -8.719   6.582  1.00  0.00     0.209 HD
ENDBRANCH  26  27
ENDBRANCH  25  26
ENDBRANCH   6  25
TORSDOF 8
