REMARK  4 active torsions:
REMARK  status: ('A' for Active; 'I' for Inactive)
REMARK    1  A    between atoms: N_4  and  C_5 
REMARK    2  A    between atoms: C_5  and  C_6 
REMARK    3  A    between atoms: C_6  and  N_7 
REMARK       I    between atoms: N_7  and  C_8 
REMARK       I    between atoms: C_8  and  N_10 
REMARK    4  A    between atoms: N_10  and  C_11 
ROOT
HETATM    1  N   UNL     1       3.331   4.206  -4.010  1.00  0.00    -0.341 N 
HETATM    2  C   UNL     1       3.250   5.541  -3.660  1.00  0.00     0.321 C 
HETATM    3  O   UNL     1       2.647   5.930  -2.669  1.00  0.00    -0.247 OA
HETATM    4  N   UNL     1       3.990   6.323  -4.512  1.00  0.00    -0.295 N 
HETATM    5  H   UNL     1       3.269   4.039  -5.006  1.00  0.00     0.164 HD
HETATM    6  H   UNL     1       4.819   5.879  -4.875  1.00  0.00     0.172 HD
ENDROOT
BRANCH   1   7
HETATM    7  C   UNL     1       2.719   3.220  -3.130  1.00  0.00     0.154 C 
BRANCH   7   8
HETATM    8  C   UNL     1       3.273   1.799  -3.339  1.00  0.00     0.292 C 
BRANCH   8   9
HETATM    9  N   UNL     1       2.703   0.798  -2.414  1.00  0.00     0.095 N 
HETATM   10  C   UNL     1       3.026   1.099  -0.999  1.00  0.00     0.303 C 
HETATM   11  C   UNL     1       2.476   0.033  -0.029  1.00  0.00     0.146 C 
HETATM   12  C   UNL     1       0.952   0.064   0.083  1.00  0.00     0.041 C 
HETATM   13  O   UNL     1       2.955  -1.275  -0.375  1.00  0.00    -0.378 OA
HETATM   14  C   UNL     1       2.679  -1.620  -1.742  1.00  0.00     0.146 C 
HETATM   15  C   UNL     1       3.229  -0.551  -2.716  1.00  0.00     0.303 C 
HETATM   16  C   UNL     1       3.320  -2.980  -1.994  1.00  0.00     0.041 C 
ENDBRANCH   8   9
ENDBRANCH   7   8
ENDBRANCH   1   7
BRANCH   4  17
HETATM   17  C   UNL     1       4.188   7.688  -4.283  1.00  0.00     0.108 A 
HETATM   18  C   UNL     1       3.161   8.532  -3.878  1.00  0.00     0.049 A 
HETATM   19  C   UNL     1       3.458   9.867  -3.617  1.00  0.00     0.005 A 
HETATM   20  C   UNL     1       4.769  10.308  -3.747  1.00  0.00     0.017 A 
HETATM   21  C   UNL     1       5.722   9.399  -4.176  1.00  0.00     0.089 A 
HETATM   22  N   UNL     1       5.454   8.111  -4.482  1.00  0.00    -0.352 N 
ATOM     23  HN  UNL     1       6.174   7.488  -4.846  1.00  0.00     0.166 HD
ENDBRANCH   4  17
TORSDOF 4
