REMARK  4 active torsions:
REMARK  status: ('A' for Active; 'I' for Inactive)
REMARK    1  A    between atoms: C_7  and  C_8 
REMARK    2  A    between atoms: C_8  and  C_9 
REMARK    3  A    between atoms: C_9  and  N_10 
REMARK       I    between atoms: N_10  and  C_11 
REMARK    4  A    between atoms: C_11  and  C_13 
ROOT
HETATM    1  C   UNL     1      -1.322  -2.227   1.030  1.00  0.00     0.128 C 
ENDROOT
BRANCH   1   2
HETATM    2  C   UNL     1      -0.926  -0.891   0.390  1.00  0.00     0.078 C 
BRANCH   2   3
HETATM    3  C   UNL     1       0.476  -0.860  -0.137  1.00  0.00     0.029 A 
HETATM    4  N   UNL     1       1.595  -0.489   0.572  1.00  0.00    -0.350 N 
HETATM    5  C   UNL     1       1.666  -0.061   1.947  1.00  0.00     0.156 C 
HETATM    6  C   UNL     1       2.667  -0.566  -0.272  1.00  0.00     0.182 A 
HETATM    7  N   UNL     1       2.311  -0.964  -1.472  1.00  0.00    -0.360 N 
HETATM    8  C   UNL     1       0.954  -1.127  -1.407  1.00  0.00     0.114 A 
ATOM      9  HN  UNL     1       2.916  -1.118  -2.279  1.00  0.00     0.166 HD
ENDBRANCH   2   3
ENDBRANCH   1   2
BRANCH   1  10
HETATM   10  N   UNL     1      -1.233  -3.356   0.124  1.00  0.00    -0.360 N 
HETATM   11  C   UNL     1      -1.705  -4.605   0.472  1.00  0.00     0.222 C 
HETATM   12  O   UNL     1      -2.322  -4.848   1.499  1.00  0.00    -0.273 OA
HETATM   13  H   UNL     1      -0.555  -3.312  -0.625  1.00  0.00     0.162 HD
BRANCH  11  14
HETATM   14  C   UNL     1      -1.360  -5.645  -0.534  1.00  0.00     0.086 A 
HETATM   15  C   UNL     1      -0.236  -6.615  -0.242  1.00  0.00     0.024 A 
HETATM   16  C   UNL     1      -1.641  -7.140  -0.422  1.00  0.00    -0.035 A 
HETATM   17  C   UNL     1      -2.292  -7.760   0.787  1.00  0.00     0.015 C 
HETATM   18  C   UNL     1      -1.985  -7.843  -1.713  1.00  0.00     0.015 C 
ENDBRANCH  11  14
ENDBRANCH   1  10
TORSDOF 4
