REMARK  1 active torsions:
REMARK  status: ('A' for Active; 'I' for Inactive)
REMARK    1  A    between atoms: C_3  and  N_6 
ROOT
HETATM    1  N   UNL     1       2.249   0.541  -1.029  1.00  0.00    -0.280 N 
HETATM    2  C   UNL     1       3.516   1.004  -0.850  1.00  0.00     0.201 A 
HETATM    3  N   UNL     1       4.135   1.050  -2.007  1.00  0.00    -0.346 N 
ATOM      4  HN  UNL     1       5.088   1.354  -2.206  1.00  0.00     0.167 HD
HETATM    5  C   UNL     1       3.190   0.592  -2.879  1.00  0.00     0.198 A 
HETATM    6  N   UNL     1       2.017   0.265  -2.328  1.00  0.00    -0.293 N 
ATOM      7  HN  UNL     1       1.173  -0.096  -2.772  1.00  0.00     0.188 HD
ENDROOT
BRANCH   1   8
HETATM    8  C   UNL     1       1.236   0.349  -0.019  1.00  0.00     0.139 C 
HETATM    9  C   UNL     1       0.704  -1.086   0.075  1.00  0.00     0.059 C 
HETATM   10  C   UNL     1      -0.791  -0.958  -0.172  1.00  0.00     0.272 C 
HETATM   11  N   UNL     1      -1.107   0.397   0.283  1.00  0.00     0.085 N 
HETATM   12  C   UNL     1      -0.007   1.212  -0.245  1.00  0.00     0.296 C 
HETATM   13  H   UNL     1      -1.997   0.703  -0.112  1.00  0.00     0.315 HD
ENDBRANCH   1   8
TORSDOF 1
