REMARK  8 active torsions:
REMARK  status: ('A' for Active; 'I' for Inactive)
REMARK    1  A    between atoms: O_2  and  C_3 
REMARK    2  A    between atoms: C_6  and  O_7 
REMARK    3  A    between atoms: C_9  and  C_11 
REMARK    4  A    between atoms: C_11  and  O_12 
REMARK    5  A    between atoms: C_11  and  C_13 
REMARK    6  A    between atoms: C_13  and  N_14 
REMARK    7  A    between atoms: C_15  and  C_16 
REMARK    8  A    between atoms: C_16  and  O_17 
ROOT
HETATM    1  C   UNL     1       1.754  -4.842   0.563  1.00  0.00     0.167 C 
ENDROOT
BRANCH   1   2
HETATM    2  C   UNL     1       2.765  -4.505   1.672  1.00  0.00     0.172 C 
BRANCH   2   3
HETATM    3  C   UNL     1       3.093  -3.015   1.688  1.00  0.00     0.008 A 
HETATM    4  C   UNL     1       4.144  -2.495   0.907  1.00  0.00     0.077 A 
HETATM    5  C   UNL     1       4.422  -1.126   0.944  1.00  0.00     0.040 A 
HETATM    6  C   UNL     1       3.652  -0.269   1.733  1.00  0.00     0.039 A 
HETATM    7  C   UNL     1       2.595  -0.761   2.496  1.00  0.00     0.069 A 
HETATM    8  C   UNL     1       2.318  -2.127   2.466  1.00  0.00     0.049 A 
BRANCH   4   9
HETATM    9  O   UNL     1       4.820  -3.407   0.137  1.00  0.00    -0.355 OA
HETATM   10  C   UNL     1       5.917  -2.928  -0.635  1.00  0.00     0.210 C 
ENDBRANCH   4   9
BRANCH   7  11
HETATM   11  O   UNL     1       1.914   0.183   3.212  1.00  0.00    -0.356 OA
HETATM   12  C   UNL     1       0.867  -0.283   4.055  1.00  0.00     0.210 C 
ENDBRANCH   7  11
ENDBRANCH   2   3
BRANCH   2  13
HETATM   13  O   UNL     1       2.260  -4.903   2.962  1.00  0.00    -0.389 OA
HETATM   14  H   UNL     1       2.865  -4.515   3.620  1.00  0.00     0.210 HD
ENDBRANCH   2  13
ENDBRANCH   1   2
BRANCH   1  15
HETATM   15  N   UNL     1       1.506  -6.272   0.433  1.00  0.00    -0.330 N 
HETATM   16  C   UNL     1       0.461  -7.008   0.965  1.00  0.00     0.108 A 
HETATM   17  N   UNL     1       0.536  -8.267   0.565  1.00  0.00    -0.342 N 
HETATM   18  C   UNL     1       1.630  -8.351  -0.249  1.00  0.00     0.060 A 
ATOM     19  HN  UNL     1      -0.098  -9.026   0.815  1.00  0.00     0.167 HD
HETATM   20  C   UNL     1       2.126  -9.457  -0.957  1.00  0.00     0.032 A 
HETATM   21  C   UNL     1       2.275  -7.124  -0.341  1.00  0.00     0.062 A 
HETATM   22  C   UNL     1       3.275  -9.298  -1.736  1.00  0.00     0.002 A 
HETATM   23  C   UNL     1       3.921  -8.063  -1.803  1.00  0.00     0.002 A 
HETATM   24  C   UNL     1       3.435  -6.947  -1.107  1.00  0.00     0.032 A 
BRANCH  16  25
HETATM   25  C   UNL     1      -0.664  -6.516   1.824  1.00  0.00     0.240 C 
BRANCH  25  26
HETATM   26  O   UNL     1      -0.316  -5.348   2.548  1.00  0.00    -0.393 OA
HETATM   27  H   UNL     1       0.547  -5.522   2.982  1.00  0.00     0.209 HD
ENDBRANCH  25  26
ENDBRANCH  16  25
ENDBRANCH   1  15
TORSDOF 8
