REMARK  4 active torsions:
REMARK  status: ('A' for Active; 'I' for Inactive)
REMARK    1  A    between atoms: C_2  and  C_3 
REMARK    2  A    between atoms: C_2  and  N_10 
REMARK    3  A    between atoms: C_3  and  N_4 
REMARK       I    between atoms: N_10  and  C_11 
REMARK    4  A    between atoms: C_11  and  C_13 
ROOT
HETATM    1  N   UNL     1       3.155  -1.287   0.474  1.00  0.00    -0.353 N 
HETATM    2  C   UNL     1       4.423  -1.637   0.067  1.00  0.00     0.240 C 
HETATM    3  O   UNL     1       5.083  -0.941  -0.703  1.00  0.00    -0.271 OA
HETATM    4  H   UNL     1       2.704  -1.883   1.163  1.00  0.00     0.163 HD
ENDROOT
BRANCH   1   5
HETATM    5  C   UNL     1       2.502  -0.033   0.064  1.00  0.00     0.100 C 
HETATM    6  C   UNL     1       0.989  -0.237   0.124  1.00  0.00     0.034 C 
BRANCH   5   7
HETATM    7  C   UNL     1       2.992   1.163   0.904  1.00  0.00     0.172 C 
BRANCH   7   8
HETATM    8  N   UNL     1       2.399   2.435   0.532  1.00  0.00    -0.302 N 
HETATM    9  C   UNL     1       2.902   3.360  -0.339  1.00  0.00     0.111 A 
HETATM   10  C   UNL     1       2.016   4.414  -0.333  1.00  0.00     0.037 A 
HETATM   11  C   UNL     1       1.021   4.036   0.586  1.00  0.00     0.108 A 
HETATM   12  N   UNL     1       1.256   2.837   1.126  1.00  0.00    -0.310 N 
ATOM     13  HN  UNL     1       0.701   2.341   1.824  1.00  0.00     0.186 HD
ENDBRANCH   7   8
ENDBRANCH   5   7
ENDBRANCH   1   5
BRANCH   2  14
HETATM   14  C   UNL     1       4.881  -3.044   0.490  1.00  0.00     0.177 C 
HETATM   15  C   UNL     1       4.405  -4.116  -0.482  1.00  0.00     0.044 C 
HETATM   16  C   UNL     1       4.320  -5.386   0.361  1.00  0.00     0.105 C 
HETATM   17  C   UNL     1       4.202  -4.867   1.773  1.00  0.00     0.218 C 
HETATM   18  O   UNL     1       4.063  -5.535   2.779  1.00  0.00    -0.274 OA
HETATM   19  N   UNL     1       4.338  -3.493   1.751  1.00  0.00    -0.348 N 
HETATM   20  H   UNL     1       4.515  -3.034   2.638  1.00  0.00     0.163 HD
ENDBRANCH   2  14
TORSDOF 4
