REMARK  5 active torsions:
REMARK  status: ('A' for Active; 'I' for Inactive)
REMARK    1  A    between atoms: C_2  and  C_5 
REMARK    2  A    between atoms: C_5  and  O_6 
REMARK    3  A    between atoms: O_6  and  C_7 
REMARK    4  A    between atoms: C_10  and  N_11 
REMARK       I    between atoms: N_11  and  C_12 
REMARK       I    between atoms: C_12  and  N_14 
REMARK    5  A    between atoms: N_14  and  C_15 
ROOT
HETATM    1  C   UNL     1       4.246   2.963   1.993  1.00  0.00     0.142 A 
HETATM    2  C   UNL     1       5.551   2.655   2.327  1.00  0.00     0.058 A 
HETATM    3  C   UNL     1       6.514   3.653   2.216  1.00  0.00     0.035 A 
HETATM    4  C   UNL     1       6.150   4.937   1.808  1.00  0.00     0.051 A 
HETATM    5  C   UNL     1       4.809   5.128   1.469  1.00  0.00     0.119 A 
HETATM    6  N   UNL     1       3.848   4.172   1.549  1.00  0.00    -0.345 N 
ATOM      7  HN  UNL     1       2.880   4.358   1.288  1.00  0.00     0.167 HD
ENDROOT
BRANCH   4   8
HETATM    8  N   UNL     1       7.064   6.009   1.713  1.00  0.00    -0.308 N 
HETATM    9  C   UNL     1       8.300   6.048   2.330  1.00  0.00     0.321 C 
HETATM   10  O   UNL     1       8.710   5.219   3.133  1.00  0.00    -0.247 OA
HETATM   11  N   UNL     1       9.069   7.108   1.908  1.00  0.00    -0.338 N 
HETATM   12  H   UNL     1       8.554   7.960   1.745  1.00  0.00     0.164 HD
HETATM   13  H   UNL     1       6.743   6.861   1.276  1.00  0.00     0.170 HD
BRANCH  11  14
HETATM   14  C   UNL     1      10.444   7.256   2.400  1.00  0.00     0.087 C 
HETATM   15  C   UNL     1      11.072   8.563   1.896  1.00  0.00     0.035 C 
HETATM   16  C   UNL     1      11.275   8.609   0.385  1.00  0.00     0.076 C 
HETATM   17  S   UNL     1      12.323   7.264  -0.239  1.00  0.00    -0.169 SA
HETATM   18  C   UNL     1      11.484   5.854   0.540  1.00  0.00     0.076 C 
HETATM   19  C   UNL     1      11.350   6.063   2.041  1.00  0.00     0.035 C 
ENDBRANCH  11  14
ENDBRANCH   4   8
BRANCH   1  20
HETATM   20  O   UNL     1       3.319   1.960   2.165  1.00  0.00    -0.327 OA
BRANCH  20  21
HETATM   21  C   UNL     1       2.090   2.200   1.469  1.00  0.00     0.294 C 
BRANCH  21  22
HETATM   22  C   UNL     1       1.126   3.161   2.160  1.00  0.00     0.408 C 
HETATM   23  F   UNL     1       1.557   3.595   3.363  1.00  0.00    -0.169 F 
HETATM   24  F   UNL     1      -0.065   2.540   2.375  1.00  0.00    -0.169 F 
HETATM   25  F   UNL     1       0.861   4.242   1.391  1.00  0.00    -0.169 F 
ENDBRANCH  21  22
ENDBRANCH  20  21
ENDBRANCH   1  20
TORSDOF 5
