REMARK  6 active torsions:
REMARK  status: ('A' for Active; 'I' for Inactive)
REMARK    1  A    between atoms: O_1  and  C_2 
REMARK    2  A    between atoms: C_2  and  C_3 
REMARK    3  A    between atoms: C_3  and  N_4 
REMARK    4  A    between atoms: N_4  and  C_5 
REMARK    5  A    between atoms: C_5  and  C_6 
REMARK    6  A    between atoms: C_6  and  N_7 
ROOT
HETATM    1  N   UNL     1       4.405   0.444   1.559  1.00  0.00     0.087 N 
HETATM    2  H   UNL     1       4.747   1.190   0.950  1.00  0.00     0.316 HD
ENDROOT
BRANCH   1   3
HETATM    3  C   UNL     1       2.933   0.426   1.459  1.00  0.00     0.307 C 
BRANCH   3   4
HETATM    4  C   UNL     1       2.437   0.064   0.037  1.00  0.00     0.084 C 
HETATM    5  C   UNL     1       2.938  -1.327  -0.402  1.00  0.00     0.039 C 
HETATM    6  C   UNL     1       2.344  -1.761  -1.742  1.00  0.00     0.003 C 
HETATM    7  C   UNL     1       0.821  -1.710  -1.720  1.00  0.00     0.000 C 
HETATM    8  C   UNL     1       0.314  -0.328  -1.321  1.00  0.00     0.003 C 
HETATM    9  C   UNL     1       0.898   0.114   0.019  1.00  0.00     0.039 C 
BRANCH   4  10
HETATM   10  O   UNL     1       2.924   1.053  -0.881  1.00  0.00    -0.388 OA
HETATM   11  H   UNL     1       3.883   0.908  -0.960  1.00  0.00     0.210 HD
ENDBRANCH   4  10
ENDBRANCH   3   4
ENDBRANCH   1   3
BRANCH   1  12
HETATM   12  C   UNL     1       4.850   0.760   2.929  1.00  0.00     0.291 C 
BRANCH  12  13
HETATM   13  C   UNL     1       4.440  -0.271   3.984  1.00  0.00     0.178 C 
BRANCH  13  14
HETATM   14  N   UNL     1       4.938   0.097   5.296  1.00  0.00    -0.302 N 
HETATM   15  C   UNL     1       6.089  -0.335   5.887  1.00  0.00     0.111 A 
HETATM   16  C   UNL     1       6.133   0.280   7.116  1.00  0.00     0.037 A 
HETATM   17  C   UNL     1       4.963   1.057   7.169  1.00  0.00     0.108 A 
HETATM   18  N   UNL     1       4.230   0.952   6.059  1.00  0.00    -0.310 N 
ATOM     19  HN  UNL     1       3.345   1.410   5.840  1.00  0.00     0.186 HD
ENDBRANCH  13  14
ENDBRANCH  12  13
ENDBRANCH   1  12
TORSDOF 6
