REMARK  2 active torsions:
REMARK  status: ('A' for Active; 'I' for Inactive)
REMARK    1  A    between atoms: C_5  and  N_6 
REMARK       I    between atoms: N_6  and  C_7 
REMARK       I    between atoms: C_7  and  N_9 
REMARK    2  A    between atoms: N_9  and  C_10 
ROOT
HETATM    1  N   UNL     1       5.539  -1.603   0.971  1.00  0.00    -0.335 N 
HETATM    2  C   UNL     1       6.644  -1.857   1.719  1.00  0.00     0.322 C 
HETATM    3  O   UNL     1       6.807  -1.430   2.858  1.00  0.00    -0.247 OA
HETATM    4  N   UNL     1       7.614  -2.611   1.122  1.00  0.00    -0.294 N 
HETATM    5  H   UNL     1       5.588  -1.877  -0.005  1.00  0.00     0.164 HD
HETATM    6  H   UNL     1       8.447  -2.717   1.681  1.00  0.00     0.172 HD
ENDROOT
BRANCH   1   7
HETATM    7  C   UNL     1       4.414  -0.794   1.380  1.00  0.00     0.122 C 
HETATM    8  C   UNL     1       3.164  -1.196   0.607  1.00  0.00     0.065 C 
HETATM    9  C   UNL     1       2.619   0.087  -0.011  1.00  0.00     0.057 C 
HETATM   10  C   UNL     1       1.118   0.232   0.244  1.00  0.00     0.045 C 
HETATM   11  C   UNL     1       2.861   0.149  -1.525  1.00  0.00     0.045 C 
HETATM   12  O   UNL     1       3.300   1.179   0.627  1.00  0.00    -0.369 OA
HETATM   13  C   UNL     1       4.568   0.724   1.149  1.00  0.00     0.075 C 
HETATM   14  C   UNL     1       4.831   1.456   2.467  1.00  0.00     0.048 C 
HETATM   15  C   UNL     1       5.664   1.131   0.151  1.00  0.00     0.048 C 
ENDBRANCH   1   7
BRANCH   4  16
HETATM   16  C   UNL     1       7.546  -3.256  -0.122  1.00  0.00     0.123 A 
HETATM   17  C   UNL     1       8.676  -3.878  -0.623  1.00  0.00     0.051 A 
HETATM   18  C   UNL     1       8.596  -4.500  -1.866  1.00  0.00     0.022 A 
HETATM   19  C   UNL     1       7.388  -4.484  -2.532  1.00  0.00     0.107 A 
HETATM   20  N   UNL     1       6.300  -3.877  -2.035  1.00  0.00    -0.310 N 
HETATM   21  N   UNL     1       6.392  -3.258  -0.828  1.00  0.00    -0.286 N 
ATOM     22  HN  UNL     1       5.421  -3.880  -2.552  1.00  0.00     0.186 HD
ATOM     23  HN  UNL     1       5.573  -2.785  -0.446  1.00  0.00     0.188 HD
ENDBRANCH   4  16
TORSDOF 2
