REMARK  5 active torsions:
REMARK  status: ('A' for Active; 'I' for Inactive)
REMARK       I    between atoms: C_2  and  N_3 
REMARK       I    between atoms: C_2  and  N_15 
REMARK    1  A    between atoms: N_3  and  C_4 
REMARK    2  A    between atoms: C_4  and  C_5 
REMARK    3  A    between atoms: C_5  and  S_6 
REMARK    4  A    between atoms: S_6  and  N_9 
REMARK    5  A    between atoms: N_15  and  C_16 
ROOT
HETATM    1  O   UNL     1      -0.164   1.788   2.814  1.00  0.00    -0.247 OA
HETATM    2  C   UNL     1       0.582   1.554   1.870  1.00  0.00     0.321 C 
HETATM    3  N   UNL     1       1.321   2.602   1.388  1.00  0.00    -0.342 N 
HETATM    4  N   UNL     1       0.784   0.360   1.243  1.00  0.00    -0.295 N 
HETATM    5  H   UNL     1       1.009   3.466   1.832  1.00  0.00     0.164 HD
HETATM    6  H   UNL     1       1.421   0.336   0.473  1.00  0.00     0.172 HD
ENDROOT
BRANCH   3   7
HETATM    7  C   UNL     1       2.086   2.700   0.156  1.00  0.00     0.141 C 
BRANCH   7   8
HETATM    8  C   UNL     1       3.112   3.816   0.177  1.00  0.00     0.183 C 
BRANCH   8   9
HETATM    9  S   UNL     1       2.345   5.422   0.127  1.00  0.00     0.230 S 
HETATM   10  O   UNL     1       1.573   5.501  -1.092  1.00  0.00    -0.206 OA
HETATM   11  O   UNL     1       1.754   5.698   1.416  1.00  0.00    -0.206 OA
BRANCH   9  12
HETATM   12  N   UNL     1       3.697   6.420  -0.045  1.00  0.00    -0.309 N 
HETATM   13  C   UNL     1       4.654   6.536   1.092  1.00  0.00     0.145 C 
HETATM   14  C   UNL     1       4.381   7.701   2.044  1.00  0.00     0.094 C 
HETATM   15  S   UNL     1       4.313   9.309   1.199  1.00  0.00    -0.166 SA
HETATM   16  C   UNL     1       3.063   8.850  -0.041  1.00  0.00     0.094 C 
HETATM   17  C   UNL     1       3.539   7.654  -0.858  1.00  0.00     0.145 C 
ENDBRANCH   9  12
ENDBRANCH   8   9
ENDBRANCH   7   8
ENDBRANCH   3   7
BRANCH   4  18
HETATM   18  C   UNL     1       0.170  -0.854   1.566  1.00  0.00     0.108 A 
HETATM   19  C   UNL     1       0.537  -1.965   0.808  1.00  0.00     0.049 A 
HETATM   20  C   UNL     1      -0.062  -3.194   1.069  1.00  0.00     0.005 A 
HETATM   21  C   UNL     1      -1.008  -3.284   2.080  1.00  0.00     0.017 A 
HETATM   22  C   UNL     1      -1.305  -2.137   2.793  1.00  0.00     0.089 A 
HETATM   23  N   UNL     1      -0.735  -0.938   2.554  1.00  0.00    -0.352 N 
ATOM     24  HN  UNL     1      -0.984  -0.119   3.108  1.00  0.00     0.166 HD
ENDBRANCH   4  18
TORSDOF 5
