REMARK  5 active torsions:
REMARK  status: ('A' for Active; 'I' for Inactive)
REMARK    1  A    between atoms: C_2  and  C_3 
REMARK       I    between atoms: C_2  and  N_13 
REMARK    2  A    between atoms: C_3  and  N_4 
REMARK    3  A    between atoms: N_4  and  C_5 
REMARK    4  A    between atoms: C_5  and  C_6 
REMARK    5  A    between atoms: C_6  and  N_7 
ROOT
HETATM    1  N   UNL     1       2.199  -1.779  -1.477  1.00  0.00     0.093 N 
HETATM    2  H   UNL     1       1.651  -1.182  -2.105  1.00  0.00     0.316 HD
ENDROOT
BRANCH   1   3
HETATM    3  C   UNL     1       3.130  -0.893  -0.754  1.00  0.00     0.372 C 
BRANCH   3   4
HETATM    4  C   UNL     1       2.342   0.132   0.067  1.00  0.00     0.247 C 
HETATM    5  O   UNL     1       2.055   1.220  -0.440  1.00  0.00    -0.271 OA
HETATM    6  N   UNL     1       1.988  -0.198   1.369  1.00  0.00    -0.351 N 
HETATM    7  C   UNL     1       1.385   0.818   2.224  1.00  0.00     0.126 C 
HETATM    8  C   UNL     1       2.103  -1.523   1.980  1.00  0.00     0.126 C 
HETATM    9  C   UNL     1       2.186   0.957   3.519  1.00  0.00     0.020 C 
HETATM   10  C   UNL     1       2.358  -0.393   4.216  1.00  0.00     0.003 C 
HETATM   11  C   UNL     1       2.930  -1.442   3.261  1.00  0.00     0.020 C 
ENDBRANCH   3   4
ENDBRANCH   1   3
BRANCH   1  12
HETATM   12  C   UNL     1       2.922  -2.776  -2.284  1.00  0.00     0.291 C 
BRANCH  12  13
HETATM   13  C   UNL     1       3.623  -3.829  -1.420  1.00  0.00     0.178 C 
BRANCH  13  14
HETATM   14  N   UNL     1       4.311  -4.828  -2.211  1.00  0.00    -0.302 N 
HETATM   15  C   UNL     1       3.832  -6.048  -2.589  1.00  0.00     0.111 A 
HETATM   16  C   UNL     1       4.878  -6.690  -3.206  1.00  0.00     0.037 A 
HETATM   17  C   UNL     1       5.941  -5.773  -3.154  1.00  0.00     0.108 A 
HETATM   18  N   UNL     1       5.597  -4.629  -2.557  1.00  0.00    -0.310 N 
ATOM     19  HN  UNL     1       6.172  -3.801  -2.400  1.00  0.00     0.186 HD
ENDBRANCH  13  14
ENDBRANCH  12  13
ENDBRANCH   1  12
TORSDOF 5
