REMARK  6 active torsions:
REMARK  status: ('A' for Active; 'I' for Inactive)
REMARK    1  A    between atoms: C_2  and  C_3 
REMARK    2  A    between atoms: C_3  and  C_4 
REMARK    3  A    between atoms: C_4  and  N_5 
REMARK    4  A    between atoms: C_6  and  N_7 
REMARK    5  A    between atoms: C_8  and  N_9 
REMARK       I    between atoms: N_9  and  C_11 
REMARK    6  A    between atoms: C_11  and  C_13 
ROOT
HETATM    1  N   UNL     1       5.169  -0.921   2.575  1.00  0.00    -0.293 N 
HETATM    2  C   UNL     1       5.226  -2.313   2.777  1.00  0.00     0.116 C 
HETATM    3  C   UNL     1       5.325  -2.810   4.056  1.00  0.00     0.139 C 
HETATM    4  C   UNL     1       5.487  -1.721   5.104  1.00  0.00     0.259 C 
HETATM    5  O   UNL     1       5.140  -1.840   6.278  1.00  0.00    -0.272 OA
HETATM    6  N   UNL     1       6.052  -0.564   4.684  1.00  0.00    -0.173 NA
HETATM    7  C   UNL     1       5.545  -0.016   3.555  1.00  0.00     0.308 C 
HETATM    8  O   UNL     1       5.426   1.206   3.475  1.00  0.00    -0.253 OA
HETATM    9  H   UNL     1       6.166   0.128   5.408  1.00  0.00     0.141 HD
ENDROOT
BRANCH   3  10
HETATM   10  N   UNL     1       5.269  -4.179   4.503  1.00  0.00    -0.309 N 
HETATM   11  C   UNL     1       5.723  -4.465   5.872  1.00  0.00     0.160 C 
HETATM   12  C   UNL     1       4.665  -5.226   3.770  1.00  0.00     0.283 C 
HETATM   13  O   UNL     1       4.137  -5.078   2.665  1.00  0.00    -0.265 OA
BRANCH  12  14
HETATM   14  C   UNL     1       4.624  -6.637   4.332  1.00  0.00     0.159 C 
HETATM   15  C   UNL     1       4.765  -7.632   3.444  1.00  0.00     0.177 C 
HETATM   16  O   UNL     1       4.719  -8.967   3.711  1.00  0.00    -0.358 OA
HETATM   17  C   UNL     1       4.305  -9.306   5.028  1.00  0.00     0.201 C 
HETATM   18  C   UNL     1       4.360  -8.205   6.090  1.00  0.00     0.202 C 
HETATM   19  O   UNL     1       4.353  -6.847   5.659  1.00  0.00    -0.342 OA
ENDBRANCH  12  14
ENDBRANCH   3  10
BRANCH   2  20
HETATM   20  N   UNL     1       5.227  -3.111   1.642  1.00  0.00    -0.286 NA
HETATM   21  H   UNL     1       4.662  -2.742   0.887  1.00  0.00     0.125 HD
HETATM   22  H   UNL     1       4.878  -4.052   1.843  1.00  0.00     0.125 HD
ENDBRANCH   2  20
BRANCH   1  23
HETATM   23  C   UNL     1       4.644  -0.359   1.317  1.00  0.00     0.134 C 
BRANCH  23  24
HETATM   24  C   UNL     1       3.134  -0.602   1.156  1.00  0.00     0.020 C 
BRANCH  24  25
HETATM   25  C   UNL     1       2.616  -0.087  -0.187  1.00  0.00    -0.003 C 
HETATM   26  C   UNL     1       1.156  -0.463  -0.396  1.00  0.00     0.005 C 
ENDBRANCH  24  25
ENDBRANCH  23  24
ENDBRANCH   1  23
TORSDOF 6
