REMARK  5 active torsions:
REMARK  status: ('A' for Active; 'I' for Inactive)
REMARK    1  A    between atoms: S_2  and  N_5 
REMARK    2  A    between atoms: N_5  and  C_6 
REMARK       I    between atoms: N_10  and  C_12 
REMARK       I    between atoms: C_12  and  N_14 
REMARK    3  A    between atoms: N_14  and  C_15 
REMARK    4  A    between atoms: C_15  and  C_16 
REMARK    5  A    between atoms: C_16  and  C_17 
ROOT
HETATM    1  C   UNL     1       4.953   0.934  -1.274  1.00  0.00     0.089 C 
HETATM    2  C   UNL     1       5.302   2.051  -2.282  1.00  0.00     0.024 C 
HETATM    3  C   UNL     1       4.910   1.688  -3.722  1.00  0.00     0.022 C 
HETATM    4  C   UNL     1       5.436   0.313  -4.132  1.00  0.00     0.127 C 
HETATM    5  N   UNL     1       5.098  -0.692  -3.132  1.00  0.00    -0.333 N 
HETATM    6  C   UNL     1       5.574  -0.383  -1.779  1.00  0.00     0.148 C 
HETATM    7  C   UNL     1       4.307  -1.768  -3.496  1.00  0.00     0.318 C 
HETATM    8  O   UNL     1       3.878  -1.922  -4.637  1.00  0.00    -0.247 OA
HETATM    9  N   UNL     1       4.072  -2.679  -2.503  1.00  0.00    -0.343 N 
HETATM   10  H   UNL     1       3.929  -2.262  -1.589  1.00  0.00     0.164 HD
ENDROOT
BRANCH   9  11
HETATM   11  C   UNL     1       3.206  -3.826  -2.705  1.00  0.00     0.130 C 
BRANCH  11  12
HETATM   12  C   UNL     1       3.789  -4.862  -3.660  1.00  0.00     0.076 C 
BRANCH  12  13
HETATM   13  C   UNL     1       2.857  -6.034  -3.805  1.00  0.00     0.010 A 
HETATM   14  C   UNL     1       2.313  -6.346  -5.049  1.00  0.00     0.025 A 
HETATM   15  C   UNL     1       1.470  -7.447  -5.154  1.00  0.00     0.003 A 
HETATM   16  C   UNL     1       1.189  -8.202  -4.021  1.00  0.00     0.017 A 
HETATM   17  C   UNL     1       1.769  -7.822  -2.824  1.00  0.00     0.088 A 
HETATM   18  N   UNL     1       2.593  -6.762  -2.692  1.00  0.00    -0.369 N 
ATOM     19  HN  UNL     1       3.002  -6.518  -1.790  1.00  0.00     0.165 HD
ENDBRANCH  12  13
ENDBRANCH  11  12
ENDBRANCH   9  11
BRANCH   1  20
HETATM   20  N   UNL     1       3.454   0.898  -1.134  1.00  0.00    -0.214 NA
HETATM   21  H   UNL     1       3.107   1.843  -0.964  1.00  0.00     0.140 HD
BRANCH  20  22
HETATM   22  S   UNL     1       2.816  -0.121   0.057  1.00  0.00     0.206 S 
HETATM   23  C   UNL     1       1.066   0.113  -0.186  1.00  0.00     0.179 C 
HETATM   24  O   UNL     1       3.195   0.450   1.325  1.00  0.00    -0.212 OA
HETATM   25  O   UNL     1       3.146  -1.490  -0.281  1.00  0.00    -0.212 OA
ENDBRANCH  20  22
ENDBRANCH   1  20
TORSDOF 5
