REMARK  6 active torsions:
REMARK  status: ('A' for Active; 'I' for Inactive)
REMARK       I    between atoms: N_1  and  C_2 
REMARK    1  A    between atoms: C_2  and  C_4 
REMARK    2  A    between atoms: C_4  and  C_5 
REMARK    3  A    between atoms: C_8  and  N_9 
REMARK       I    between atoms: N_9  and  C_10 
REMARK    4  A    between atoms: C_10  and  C_12 
REMARK    5  A    between atoms: C_12  and  C_13 
REMARK    6  A    between atoms: C_13  and  C_14 
ROOT
HETATM    1  C   UNL     1       4.711   0.380  -0.868  1.00  0.00     0.026 A 
HETATM    2  C   UNL     1       5.588   1.423  -1.110  1.00  0.00     0.078 A 
HETATM    3  S   UNL     1       7.211   0.873  -0.961  1.00  0.00    -0.064 SA
HETATM    4  C   UNL     1       6.626  -0.698  -0.666  1.00  0.00     0.151 A 
HETATM    5  N   UNL     1       5.329  -0.832  -0.599  1.00  0.00    -0.339 N 
ATOM      6  HN  UNL     1       4.842  -1.701  -0.381  1.00  0.00     0.168 HD
ENDROOT
BRANCH   4   7
HETATM    7  N   UNL     1       7.585  -1.658  -0.511  1.00  0.00    -0.307 N 
HETATM    8  C   UNL     1       7.260  -2.996  -0.506  1.00  0.00     0.223 C 
HETATM    9  O   UNL     1       6.163  -3.478  -0.772  1.00  0.00    -0.273 OA
HETATM   10  H   UNL     1       8.546  -1.353  -0.508  1.00  0.00     0.171 HD
BRANCH   8  11
HETATM   11  C   UNL     1       8.442  -3.886  -0.168  1.00  0.00     0.105 C 
BRANCH  11  12
HETATM   12  C   UNL     1       9.003  -3.622   1.233  1.00  0.00     0.041 C 
BRANCH  12  13
HETATM   13  C   UNL     1       7.979  -3.888   2.335  1.00  0.00     0.121 C 
HETATM   14  C   UNL     1       8.514  -3.608   3.730  1.00  0.00     0.034 C 
HETATM   15  C   UNL     1       7.849  -4.653   4.604  1.00  0.00     0.029 C 
HETATM   16  C   UNL     1       7.060  -5.519   3.643  1.00  0.00     0.168 C 
HETATM   17  O   UNL     1       7.617  -5.272   2.349  1.00  0.00    -0.386 OA
ENDBRANCH  12  13
ENDBRANCH  11  12
ENDBRANCH   8  11
ENDBRANCH   4   7
BRANCH   1  18
HETATM   18  C   UNL     1       3.217   0.434  -0.849  1.00  0.00     0.160 C 
BRANCH  18  19
HETATM   19  C   UNL     1       2.558  -0.478  -1.869  1.00  0.00     0.221 C 
HETATM   20  N   UNL     1       3.131  -1.695  -2.084  1.00  0.00    -0.370 N 
HETATM   21  H   UNL     1       2.715  -2.338  -2.742  1.00  0.00     0.159 HD
HETATM   22  H   UNL     1       4.007  -1.959  -1.629  1.00  0.00     0.159 HD
HETATM   23  O   UNL     1       1.503  -0.179  -2.430  1.00  0.00    -0.273 OA
ENDBRANCH  18  19
ENDBRANCH   1  18
TORSDOF 6
