REMARK  5 active torsions:
REMARK  status: ('A' for Active; 'I' for Inactive)
REMARK    1  A    between atoms: N_7  and  C_8 
REMARK    2  A    between atoms: C_8  and  C_9 
REMARK       I    between atoms: C_9  and  N_11 
REMARK    3  A    between atoms: N_11  and  C_12 
REMARK    4  A    between atoms: C_12  and  C_18 
REMARK    5  A    between atoms: C_18  and  O_20 
ROOT
HETATM    1  C   UNL     1       4.283  -3.740   0.175  1.00  0.00     0.238 C 
HETATM    2  O   UNL     1       3.100  -3.400   0.262  1.00  0.00    -0.272 OA
HETATM    3  N   UNL     1       4.648  -5.018  -0.271  1.00  0.00    -0.341 N 
HETATM    4  H   UNL     1       5.502  -5.038  -0.829  1.00  0.00     0.163 HD
ENDROOT
BRANCH   1   5
HETATM    5  C   UNL     1       5.407  -2.772   0.541  1.00  0.00     0.255 C 
BRANCH   5   6
HETATM    6  N   UNL     1       5.754  -1.890  -0.564  1.00  0.00    -0.249 N 
HETATM    7  C   UNL     1       6.752  -2.283  -1.436  1.00  0.00     0.262 A 
HETATM    8  C   UNL     1       7.094  -1.333  -2.509  1.00  0.00     0.078 A 
HETATM    9  O   UNL     1       7.359  -3.349  -1.361  1.00  0.00    -0.267 OA
HETATM   10  C   UNL     1       6.450  -0.166  -2.626  1.00  0.00     0.031 A 
HETATM   11  C   UNL     1       5.398   0.117  -1.620  1.00  0.00     0.022 A 
HETATM   12  C   UNL     1       4.676   1.439  -1.728  1.00  0.00     0.069 C 
HETATM   13  N   UNL     1       5.081  -0.682  -0.649  1.00  0.00    -0.300 N 
ATOM     14  HN  UNL     1       4.361  -0.430   0.028  1.00  0.00     0.187 HD
ENDBRANCH   5   6
ENDBRANCH   1   5
BRANCH   3  15
HETATM   15  C   UNL     1       3.551  -5.944  -0.663  1.00  0.00     0.118 C 
HETATM   16  C   UNL     1       2.664  -6.253   0.578  1.00  0.00     0.042 C 
HETATM   17  C   UNL     1       3.318  -7.259   1.533  1.00  0.00     0.003 C 
HETATM   18  C   UNL     1       3.467  -8.599   0.839  1.00  0.00     0.000 C 
HETATM   19  C   UNL     1       4.397  -8.452  -0.353  1.00  0.00     0.003 C 
HETATM   20  C   UNL     1       4.006  -7.305  -1.287  1.00  0.00     0.042 C 
BRANCH  15  21
HETATM   21  C   UNL     1       2.894  -5.247  -1.903  1.00  0.00     0.169 C 
HETATM   22  O   UNL     1       3.540  -4.918  -2.896  1.00  0.00    -0.648 OA
BRANCH  21  23
HETATM   23  O   UNL     1       1.557  -5.061  -1.858  1.00  0.00    -0.775 OA
HETATM   24  H   UNL     1       1.187  -5.111  -0.959  1.00  0.00     0.167 HD
ENDBRANCH  21  23
ENDBRANCH  15  21
ENDBRANCH   3  15
TORSDOF 5
