REMARK  7 active torsions:
REMARK  status: ('A' for Active; 'I' for Inactive)
REMARK    1  A    between atoms: O_2  and  C_3 
REMARK    2  A    between atoms: C_3  and  C_4 
REMARK    3  A    between atoms: C_4  and  N_5 
REMARK    4  A    between atoms: C_6  and  N_7 
REMARK    5  A    between atoms: C_8  and  N_9 
REMARK    6  A    between atoms: N_9  and  C_10 
REMARK    7  A    between atoms: C_10  and  C_11 
ROOT
HETATM    1  N   UNL     1       4.731   2.329  -1.303  1.00  0.00    -0.286 N 
HETATM    2  C   UNL     1       5.496   2.122  -2.447  1.00  0.00     0.111 A 
HETATM    3  C   UNL     1       5.971   3.178  -3.155  1.00  0.00     0.116 A 
HETATM    4  C   UNL     1       5.607   4.558  -2.708  1.00  0.00     0.274 A 
HETATM    5  O   UNL     1       5.963   5.549  -3.342  1.00  0.00    -0.266 OA
HETATM    6  N   UNL     1       4.885   4.650  -1.563  1.00  0.00    -0.274 N 
HETATM    7  C   UNL     1       4.467   3.600  -0.805  1.00  0.00     0.330 A 
HETATM    8  O   UNL     1       3.883   3.826   0.253  1.00  0.00    -0.246 OA
HETATM    9  H   UNL     1       4.659   5.570  -1.226  1.00  0.00     0.173 HD
ENDROOT
BRANCH   3  10
HETATM   10  N   UNL     1       6.862   3.050  -4.243  1.00  0.00    -0.281 NA
HETATM   11  H   UNL     1       7.551   3.803  -4.137  1.00  0.00     0.128 HD
BRANCH  10  12
HETATM   12  C   UNL     1       6.347   3.212  -5.608  1.00  0.00     0.131 C 
BRANCH  12  13
HETATM   13  C   UNL     1       7.403   2.737  -6.576  1.00  0.00    -0.045 A 
HETATM   14  C   UNL     1       7.474   1.384  -6.933  1.00  0.00     0.008 A 
HETATM   15  C   UNL     1       8.469   0.927  -7.799  1.00  0.00     0.001 A 
HETATM   16  C   UNL     1       9.410   1.818  -8.312  1.00  0.00     0.000 A 
HETATM   17  C   UNL     1       9.354   3.167  -7.960  1.00  0.00     0.001 A 
HETATM   18  C   UNL     1       8.360   3.625  -7.095  1.00  0.00     0.008 A 
ENDBRANCH  12  13
ENDBRANCH  10  12
ENDBRANCH   3  10
BRANCH   2  19
HETATM   19  N   UNL     1       5.852   0.848  -2.881  1.00  0.00    -0.287 NA
HETATM   20  H   UNL     1       6.199   0.279  -2.115  1.00  0.00     0.125 HD
HETATM   21  H   UNL     1       6.584   0.945  -3.593  1.00  0.00     0.125 HD
ENDBRANCH   2  19
BRANCH   1  22
HETATM   22  C   UNL     1       4.191   1.201  -0.529  1.00  0.00     0.161 C 
BRANCH  22  23
HETATM   23  C   UNL     1       2.657   1.175  -0.490  1.00  0.00     0.187 C 
BRANCH  23  24
HETATM   24  O   UNL     1       2.216   0.022   0.235  1.00  0.00    -0.394 OA
HETATM   25  C   UNL     1       0.799   0.020   0.371  1.00  0.00     0.201 C 
ENDBRANCH  23  24
ENDBRANCH  22  23
ENDBRANCH   1  22
TORSDOF 7
