REMARK  5 active torsions:
REMARK  status: ('A' for Active; 'I' for Inactive)
REMARK    1  A    between atoms: O_2  and  C_3 
REMARK    2  A    between atoms: C_3  and  C_6 
REMARK    3  A    between atoms: C_9  and  C_10 
REMARK    4  A    between atoms: C_10  and  C_11 
REMARK       I    between atoms: C_11  and  N_13 
REMARK    5  A    between atoms: N_13  and  C_14 
ROOT
HETATM    1  C   UNL     1       5.565  -0.380   0.453  1.00  0.00     0.182 A 
HETATM    2  N   UNL     1       6.417  -1.244   0.963  1.00  0.00    -0.324 N 
ATOM      3  HN  UNL     1       6.871  -1.227   1.876  1.00  0.00     0.169 HD
HETATM    4  C   UNL     1       6.543  -2.172  -0.037  1.00  0.00     0.112 A 
HETATM    5  N   UNL     1       5.781  -1.938  -1.116  1.00  0.00    -0.247 N 
ATOM      6  HN  UNL     1       5.694  -2.499  -1.964  1.00  0.00     0.196 HD
HETATM    7  O   UNL     1       5.133  -0.736  -0.797  1.00  0.00    -0.220 OA
ENDROOT
BRANCH   4   8
HETATM    8  C   UNL     1       7.546  -3.257   0.016  1.00  0.00     0.181 C 
BRANCH   8   9
HETATM    9  C   UNL     1       7.004  -4.517   0.650  1.00  0.00     0.225 C 
HETATM   10  O   UNL     1       7.357  -4.873   1.774  1.00  0.00    -0.273 OA
HETATM   11  N   UNL     1       6.139  -5.271  -0.134  1.00  0.00    -0.356 N 
HETATM   12  H   UNL     1       5.687  -4.783  -0.903  1.00  0.00     0.162 HD
BRANCH  11  13
HETATM   13  C   UNL     1       5.442  -6.416   0.458  1.00  0.00     0.084 C 
HETATM   14  C   UNL     1       6.388  -7.607   0.739  1.00  0.00     0.025 C 
HETATM   15  C   UNL     1       6.334  -8.793  -0.224  1.00  0.00     0.002 C 
HETATM   16  C   UNL     1       4.933  -9.108  -0.709  1.00  0.00     0.000 C 
HETATM   17  C   UNL     1       4.331  -7.867  -1.357  1.00  0.00     0.002 C 
HETATM   18  C   UNL     1       4.163  -6.768  -0.319  1.00  0.00     0.025 C 
ENDBRANCH  11  13
ENDBRANCH   8   9
ENDBRANCH   4   8
BRANCH   1  19
HETATM   19  C   UNL     1       5.047   0.914   1.038  1.00  0.00     0.120 C 
HETATM   20  C   UNL     1       5.596   1.058   2.469  1.00  0.00     0.055 C 
HETATM   21  C   UNL     1       3.513   0.910   1.059  1.00  0.00     0.055 C 
BRANCH  19  22
HETATM   22  O   UNL     1       5.552   1.952   0.179  1.00  0.00    -0.377 OA
HETATM   23  C   UNL     1       5.289   3.293   0.567  1.00  0.00     0.203 C 
ENDBRANCH  19  22
ENDBRANCH   1  19
TORSDOF 5
