REMARK  5 active torsions:
REMARK  status: ('A' for Active; 'I' for Inactive)
REMARK    1  A    between atoms: C_2  and  C_5 
REMARK    2  A    between atoms: C_5  and  N_6 
REMARK       I    between atoms: N_6  and  C_7 
REMARK       I    between atoms: C_7  and  N_9 
REMARK    3  A    between atoms: N_9  and  C_10 
REMARK    4  A    between atoms: C_10  and  C_11 
REMARK    5  A    between atoms: C_16  and  N_18 
ROOT
HETATM    1  C   UNL     1       8.759  -1.082  -3.441  1.00  0.00    -0.035 A 
HETATM    2  C   UNL     1       9.450   0.119  -3.309  1.00  0.00     0.026 A 
HETATM    3  C   UNL     1      10.829   0.065  -3.230  1.00  0.00     0.090 A 
HETATM    4  N   UNL     1      11.546  -1.081  -3.275  1.00  0.00    -0.352 N 
ATOM      5  HN  UNL     1      12.565  -1.058  -3.228  1.00  0.00     0.166 HD
HETATM    6  C   UNL     1      10.890  -2.256  -3.383  1.00  0.00     0.103 A 
HETATM    7  C   UNL     1       9.495  -2.273  -3.437  1.00  0.00     0.057 A 
ENDROOT
BRANCH   1   8
HETATM    8  C   UNL     1       7.275  -1.117  -3.662  1.00  0.00     0.163 C 
BRANCH   8   9
HETATM    9  N   UNL     1       6.524  -1.167  -2.433  1.00  0.00    -0.339 N 
HETATM   10  C   UNL     1       5.157  -1.203  -2.519  1.00  0.00     0.316 C 
HETATM   11  N   UNL     1       4.562  -1.033  -1.297  1.00  0.00    -0.335 N 
HETATM   12  O   UNL     1       4.530  -1.342  -3.560  1.00  0.00    -0.247 OA
HETATM   13  H   UNL     1       5.095  -1.379  -0.512  1.00  0.00     0.164 HD
HETATM   14  H   UNL     1       6.913  -0.693  -1.631  1.00  0.00     0.164 HD
BRANCH  11  15
HETATM   15  C   UNL     1       3.099  -1.122  -1.201  1.00  0.00     0.241 C 
BRANCH  15  16
HETATM   16  C   UNL     1       2.517  -2.543  -1.159  1.00  0.00     0.403 C 
HETATM   17  F   UNL     1       3.480  -3.489  -1.138  1.00  0.00    -0.169 F 
HETATM   18  F   UNL     1       1.703  -2.790  -2.207  1.00  0.00    -0.169 F 
HETATM   19  F   UNL     1       1.781  -2.703  -0.030  1.00  0.00    -0.169 F 
ENDBRANCH  15  16
ENDBRANCH  11  15
ENDBRANCH   8   9
ENDBRANCH   1   8
BRANCH   6  20
HETATM   20  N   UNL     1      11.615  -3.412  -3.575  1.00  0.00    -0.363 N 
HETATM   21  C   UNL     1      13.057  -3.323  -3.838  1.00  0.00     0.150 C 
HETATM   22  C   UNL     1      13.438  -4.469  -4.795  1.00  0.00     0.187 C 
HETATM   23  O   UNL     1      13.057  -5.756  -4.271  1.00  0.00    -0.388 OA
HETATM   24  C   UNL     1      11.640  -5.802  -4.029  1.00  0.00     0.187 C 
HETATM   25  C   UNL     1      11.204  -4.711  -3.036  1.00  0.00     0.150 C 
ENDBRANCH   6  20
TORSDOF 5
