REMARK  3 active torsions:
REMARK  status: ('A' for Active; 'I' for Inactive)
REMARK    1  A    between atoms: C_2  and  C_3 
REMARK       I    between atoms: C_2  and  N_16 
REMARK    2  A    between atoms: C_3  and  C_4 
REMARK    3  A    between atoms: C_7  and  N_10 
ROOT
HETATM    1  C   UNL     1       1.967  -1.457   2.038  1.00  0.00     0.026 A 
HETATM    2  C   UNL     1       0.862  -0.974   2.718  1.00  0.00     0.078 A 
HETATM    3  S   UNL     1       0.202  -2.201   3.703  1.00  0.00    -0.064 SA
HETATM    4  C   UNL     1       1.415  -3.280   3.172  1.00  0.00     0.155 A 
HETATM    5  N   UNL     1       2.245  -2.796   2.271  1.00  0.00    -0.339 N 
ATOM      6  HN  UNL     1       2.984  -3.328   1.812  1.00  0.00     0.168 HD
ENDROOT
BRANCH   1   7
HETATM    7  C   UNL     1       2.929  -0.657   1.230  1.00  0.00     0.160 C 
BRANCH   7   8
HETATM    8  C   UNL     1       2.333   0.026   0.010  1.00  0.00     0.225 C 
HETATM    9  O   UNL     1       1.244  -0.303  -0.463  1.00  0.00    -0.273 OA
HETATM   10  N   UNL     1       3.098   1.054  -0.548  1.00  0.00    -0.352 N 
HETATM   11  C   UNL     1       2.625   1.728  -1.757  1.00  0.00     0.125 C 
HETATM   12  C   UNL     1       4.481   1.365  -0.182  1.00  0.00     0.125 C 
HETATM   13  C   UNL     1       3.535   1.402  -2.942  1.00  0.00     0.020 C 
HETATM   14  C   UNL     1       5.006   1.674  -2.610  1.00  0.00     0.003 C 
HETATM   15  C   UNL     1       5.415   0.967  -1.319  1.00  0.00     0.020 C 
ENDBRANCH   7   8
ENDBRANCH   1   7
BRANCH   4  16
HETATM   16  N   UNL     1       1.506  -4.565   3.657  1.00  0.00    -0.278 N 
HETATM   17  C   UNL     1       2.366  -5.577   3.086  1.00  0.00     0.155 C 
HETATM   18  C   UNL     1       2.382  -6.682   4.129  1.00  0.00     0.145 C 
HETATM   19  N   UNL     1       1.293  -6.357   5.001  1.00  0.00    -0.341 N 
HETATM   20  C   UNL     1       0.864  -5.047   4.799  1.00  0.00     0.324 C 
HETATM   21  H   UNL     1       1.099  -6.790   5.895  1.00  0.00     0.164 HD
HETATM   22  O   UNL     1       0.105  -4.499   5.579  1.00  0.00    -0.247 OA
ENDBRANCH   4  16
TORSDOF 3
