REMARK  6 active torsions:
REMARK  status: ('A' for Active; 'I' for Inactive)
REMARK    1  A    between atoms: O_1  and  C_2 
REMARK    2  A    between atoms: C_2  and  C_3 
REMARK    3  A    between atoms: N_12  and  C_13 
REMARK    4  A    between atoms: C_13  and  C_14 
REMARK    5  A    between atoms: C_14  and  O_15 
REMARK    6  A    between atoms: C_14  and  C_16 
ROOT
HETATM    1  C   UNL     1       2.811   0.753   1.176  1.00  0.00     0.108 A 
HETATM    2  N   UNL     1       2.638   2.062   1.224  1.00  0.00    -0.342 N 
ATOM      3  HN  UNL     1       2.254   2.657   0.490  1.00  0.00     0.167 HD
HETATM    4  C   UNL     1       3.079   2.457   2.458  1.00  0.00     0.060 A 
HETATM    5  C   UNL     1       3.081   3.738   3.031  1.00  0.00     0.032 A 
HETATM    6  C   UNL     1       3.577   3.899   4.329  1.00  0.00     0.002 A 
HETATM    7  C   UNL     1       4.065   2.804   5.042  1.00  0.00     0.002 A 
HETATM    8  C   UNL     1       4.069   1.517   4.487  1.00  0.00     0.032 A 
HETATM    9  C   UNL     1       3.567   1.374   3.185  1.00  0.00     0.062 A 
HETATM   10  N   UNL     1       3.399   0.294   2.339  1.00  0.00    -0.330 N 
ENDROOT
BRANCH  10  11
HETATM   11  C   UNL     1       3.689  -1.091   2.680  1.00  0.00     0.167 C 
BRANCH  11  12
HETATM   12  C   UNL     1       5.077  -1.571   2.216  1.00  0.00     0.169 C 
BRANCH  12  13
HETATM   13  O   UNL     1       6.157  -0.879   2.844  1.00  0.00    -0.389 OA
HETATM   14  H   UNL     1       5.858  -0.530   3.697  1.00  0.00     0.210 HD
ENDBRANCH  12  13
BRANCH  12  15
HETATM   15  C   UNL     1       5.296  -3.048   2.492  1.00  0.00    -0.025 A 
HETATM   16  C   UNL     1       5.580  -3.937   1.442  1.00  0.00     0.010 A 
HETATM   17  C   UNL     1       5.810  -5.294   1.693  1.00  0.00     0.004 A 
HETATM   18  C   UNL     1       5.759  -5.782   2.997  1.00  0.00     0.042 A 
HETATM   19  C   UNL     1       5.484  -4.908   4.039  1.00  0.00     0.117 A 
HETATM   20  F   UNL     1       5.440  -5.370   5.295  1.00  0.00    -0.206 F 
HETATM   21  C   UNL     1       5.255  -3.554   3.802  1.00  0.00     0.052 A 
ENDBRANCH  12  15
ENDBRANCH  11  12
ENDBRANCH  10  11
BRANCH   1  22
HETATM   22  C   UNL     1       2.429  -0.098   0.015  1.00  0.00     0.240 C 
BRANCH  22  23
HETATM   23  O   UNL     1       1.462  -1.041   0.456  1.00  0.00    -0.393 OA
HETATM   24  H   UNL     1       0.878  -1.213  -0.303  1.00  0.00     0.209 HD
ENDBRANCH  22  23
ENDBRANCH   1  22
TORSDOF 6
