REMARK  3 active torsions:
REMARK  status: ('A' for Active; 'I' for Inactive)
REMARK    1  A    between atoms: C_4  and  N_5 
REMARK       I    between atoms: N_5  and  C_6 
REMARK       I    between atoms: C_6  and  N_8 
REMARK    2  A    between atoms: N_8  and  C_9 
REMARK    3  A    between atoms: C_13  and  C_16 
ROOT
HETATM    1  C   UNL     1       1.173  -3.037  -3.951  1.00  0.00     0.109 A 
HETATM    2  C   UNL     1       0.455  -3.822  -4.838  1.00  0.00     0.049 A 
HETATM    3  C   UNL     1      -0.284  -3.194  -5.839  1.00  0.00     0.006 A 
HETATM    4  C   UNL     1      -0.280  -1.804  -5.931  1.00  0.00     0.034 A 
HETATM    5  C   UNL     1       0.471  -1.073  -5.016  1.00  0.00     0.118 A 
HETATM    6  N   UNL     1       1.187  -1.691  -4.035  1.00  0.00    -0.339 N 
ATOM      7  HN  UNL     1       1.729  -1.140  -3.370  1.00  0.00     0.167 HD
ENDROOT
BRANCH   1   8
HETATM    8  N   UNL     1       1.899  -3.660  -2.932  1.00  0.00    -0.295 N 
HETATM    9  C   UNL     1       2.629  -3.076  -1.933  1.00  0.00     0.322 C 
HETATM   10  N   UNL     1       2.698  -1.713  -1.944  1.00  0.00    -0.338 N 
HETATM   11  O   UNL     1       3.172  -3.785  -1.087  1.00  0.00    -0.247 OA
HETATM   12  H   UNL     1       2.194  -1.257  -2.700  1.00  0.00     0.164 HD
HETATM   13  H   UNL     1       1.881  -4.668  -2.869  1.00  0.00     0.172 HD
BRANCH  10  14
HETATM   14  C   UNL     1       3.305  -0.913  -0.941  1.00  0.00     0.090 A 
HETATM   15  C   UNL     1       2.476  -0.111   0.034  1.00  0.00     0.006 A 
HETATM   16  C   UNL     1       0.984  -0.104  -0.023  1.00  0.00     0.012 C 
HETATM   17  C   UNL     1       3.268   0.592  -1.036  1.00  0.00     0.032 A 
ENDBRANCH  10  14
ENDBRANCH   1   8
BRANCH   5  18
HETATM   18  C   UNL     1       0.516   0.446  -5.073  1.00  0.00     0.432 C 
HETATM   19  F   UNL     1      -0.189   0.975  -6.117  1.00  0.00    -0.165 F 
HETATM   20  F   UNL     1       0.008   1.031  -3.952  1.00  0.00    -0.165 F 
HETATM   21  F   UNL     1       1.784   0.931  -5.204  1.00  0.00    -0.165 F 
ENDBRANCH   5  18
TORSDOF 3
