REMARK  3 active torsions:
REMARK  status: ('A' for Active; 'I' for Inactive)
REMARK    1  A    between atoms: C_2  and  C_3 
REMARK    2  A    between atoms: C_2  and  C_14 
REMARK       I    between atoms: C_3  and  N_5 
REMARK    3  A    between atoms: N_5  and  C_6 
ROOT
HETATM    1  C   UNL     1       3.111  -0.289  -1.428  1.00  0.00     0.226 C 
HETATM    2  O   UNL     1       3.854   0.455  -2.068  1.00  0.00    -0.273 OA
HETATM    3  N   UNL     1       2.864  -1.602  -1.776  1.00  0.00    -0.352 N 
HETATM    4  H   UNL     1       2.114  -2.062  -1.277  1.00  0.00     0.163 HD
ENDROOT
BRANCH   1   5
HETATM    5  C   UNL     1       2.467   0.185  -0.115  1.00  0.00     0.110 C 
HETATM    6  C   UNL     1       3.377  -0.154   1.059  1.00  0.00     0.025 C 
BRANCH   5   7
HETATM    7  C   UNL     1       1.038  -0.291   0.018  1.00  0.00     0.002 A 
HETATM    8  C   UNL     1      -0.101   0.348  -0.559  1.00  0.00     0.031 A 
HETATM    9  C   UNL     1      -0.173   1.596  -1.363  1.00  0.00     0.070 C 
HETATM   10  N   UNL     1      -1.223  -0.335  -0.328  1.00  0.00    -0.303 N 
HETATM   11  N   UNL     1      -0.832  -1.400   0.383  1.00  0.00    -0.300 N 
ATOM     12  HN  UNL     1      -2.169  -0.098  -0.627  1.00  0.00     0.186 HD
HETATM   13  C   UNL     1      -1.816  -2.398   0.735  1.00  0.00     0.177 C 
HETATM   14  C   UNL     1       0.517  -1.425   0.638  1.00  0.00     0.033 A 
HETATM   15  C   UNL     1       1.174  -2.517   1.408  1.00  0.00     0.070 C 
ENDBRANCH   5   7
ENDBRANCH   1   5
BRANCH   3  16
HETATM   16  C   UNL     1       3.351  -2.280  -2.991  1.00  0.00     0.029 C 
HETATM   17  C   UNL     1       2.874  -1.531  -4.250  1.00  0.00     0.038 C 
HETATM   18  C   UNL     1       2.729  -3.703  -3.037  1.00  0.00     0.031 C 
HETATM   19  C   UNL     1       3.321  -4.672  -2.012  1.00  0.00     0.007 C 
HETATM   20  C   UNL     1       4.850  -4.743  -2.079  1.00  0.00    -0.019 C 
HETATM   21  C   UNL     1       5.332  -5.442  -3.355  1.00  0.00     0.010 C 
HETATM   22  C   UNL     1       5.441  -3.336  -1.942  1.00  0.00     0.007 C 
HETATM   23  C   UNL     1       4.895  -2.365  -2.991  1.00  0.00     0.031 C 
ENDBRANCH   3  16
TORSDOF 3
