REMARK  3 active torsions:
REMARK  status: ('A' for Active; 'I' for Inactive)
REMARK    1  A    between atoms: C_4  and  N_5 
REMARK       I    between atoms: N_5  and  C_6 
REMARK       I    between atoms: C_6  and  N_8 
REMARK    2  A    between atoms: N_8  and  C_9 
REMARK    3  A    between atoms: C_9  and  C_10 
ROOT
HETATM    1  N   UNL     1       5.725   1.625   0.112  1.00  0.00    -0.293 N 
HETATM    2  C   UNL     1       5.613   3.044   0.081  1.00  0.00     0.321 C 
HETATM    3  O   UNL     1       4.540   3.616   0.053  1.00  0.00    -0.247 OA
HETATM    4  N   UNL     1       6.834   3.651   0.091  1.00  0.00    -0.342 N 
HETATM    5  H   UNL     1       6.643   1.211   0.122  1.00  0.00     0.172 HD
HETATM    6  H   UNL     1       7.696   3.130   0.109  1.00  0.00     0.164 HD
ENDROOT
BRANCH   1   7
HETATM    7  C   UNL     1       4.607   0.786   0.120  1.00  0.00     0.127 A 
HETATM    8  C   UNL     1       3.277   1.158   0.130  1.00  0.00     0.076 A 
HETATM    9  C   UNL     1       2.533  -0.038   0.140  1.00  0.00     0.025 A 
HETATM   10  C   UNL     1       1.057  -0.176   0.155  1.00  0.00     0.070 C 
HETATM   11  N   UNL     1       3.332  -1.108   0.138  1.00  0.00    -0.302 N 
HETATM   12  N   UNL     1       4.578  -0.591   0.125  1.00  0.00    -0.281 N 
ATOM     13  HN  UNL     1       3.062  -2.092   0.145  1.00  0.00     0.186 HD
HETATM   14  C   UNL     1       5.682  -1.519   0.115  1.00  0.00     0.179 C 
ENDBRANCH   1   7
BRANCH   4  15
HETATM   15  C   UNL     1       6.900   5.101   0.042  1.00  0.00     0.129 C 
BRANCH  15  16
HETATM   16  C   UNL     1       7.596   5.580   1.302  1.00  0.00     0.003 C 
HETATM   17  C   UNL     1       6.996   5.188   2.681  1.00  0.00     0.006 C 
HETATM   18  C   UNL     1       7.350   6.607   3.165  1.00  0.00     0.001 C 
HETATM   19  C   UNL     1       7.284   7.053   1.692  1.00  0.00     0.006 C 
ENDBRANCH  15  16
ENDBRANCH   4  15
TORSDOF 3
