REMARK  5 active torsions:
REMARK  status: ('A' for Active; 'I' for Inactive)
REMARK    1  A    between atoms: C_2  and  C_3 
REMARK    2  A    between atoms: C_2  and  N_10 
REMARK    3  A    between atoms: C_3  and  N_4 
REMARK       I    between atoms: N_10  and  C_11 
REMARK    4  A    between atoms: C_11  and  C_13 
REMARK    5  A    between atoms: C_13  and  N_15 
ROOT
HETATM    1  N   UNL     1       3.425  -0.814  -1.394  1.00  0.00    -0.353 N 
HETATM    2  C   UNL     1       4.785  -0.721  -1.600  1.00  0.00     0.242 C 
HETATM    3  O   UNL     1       5.522  -0.091  -0.845  1.00  0.00    -0.271 OA
HETATM    4  H   UNL     1       2.884  -1.464  -1.956  1.00  0.00     0.163 HD
ENDROOT
BRANCH   1   5
HETATM    5  C   UNL     1       2.769  -0.169  -0.251  1.00  0.00     0.108 C 
HETATM    6  C   UNL     1       1.294   0.045  -0.591  1.00  0.00     0.034 C 
BRANCH   5   7
HETATM    7  C   UNL     1       2.976  -0.997   1.055  1.00  0.00     0.297 C 
BRANCH   7   8
HETATM    8  N   UNL     1       2.267  -0.501   2.251  1.00  0.00     0.094 N 
HETATM    9  C   UNL     1       2.807   0.772   2.776  1.00  0.00     0.298 C 
HETATM   10  C   UNL     1       4.116   0.650   3.583  1.00  0.00     0.198 C 
HETATM   11  O   UNL     1       4.013  -0.327   4.625  1.00  0.00    -0.388 OA
HETATM   12  C   UNL     1       3.634  -1.598   4.088  1.00  0.00     0.198 C 
HETATM   13  C   UNL     1       2.290  -1.499   3.349  1.00  0.00     0.298 C 
ENDBRANCH   7   8
ENDBRANCH   5   7
ENDBRANCH   1   5
BRANCH   2  14
HETATM   14  C   UNL     1       5.300  -1.460  -2.832  1.00  0.00     0.195 C 
HETATM   15  C   UNL     1       6.503  -0.750  -3.446  1.00  0.00     0.044 C 
BRANCH  14  16
HETATM   16  N   UNL     1       5.613  -2.841  -2.491  1.00  0.00    -0.290 N 
HETATM   17  C   UNL     1       6.490  -3.289  -1.542  1.00  0.00     0.112 A 
HETATM   18  C   UNL     1       6.495  -4.659  -1.639  1.00  0.00     0.037 A 
HETATM   19  C   UNL     1       5.584  -4.946  -2.671  1.00  0.00     0.108 A 
HETATM   20  N   UNL     1       5.031  -3.844  -3.184  1.00  0.00    -0.309 N 
ATOM     21  HN  UNL     1       4.333  -3.776  -3.925  1.00  0.00     0.186 HD
ENDBRANCH  14  16
ENDBRANCH   2  14
TORSDOF 5
