REMARK  6 active torsions:
REMARK  status: ('A' for Active; 'I' for Inactive)
REMARK    1  A    between atoms: O_2  and  C_3 
REMARK    2  A    between atoms: C_3  and  C_4 
REMARK    3  A    between atoms: C_4  and  N_5 
REMARK    4  A    between atoms: C_6  and  N_7 
REMARK    5  A    between atoms: C_8  and  S_9 
REMARK    6  A    between atoms: S_9  and  C_10 
ROOT
HETATM    1  N   UNL     1       4.980   2.761   0.588  1.00  0.00    -0.287 N 
HETATM    2  C   UNL     1       6.241   2.866   1.179  1.00  0.00     0.107 C 
HETATM    3  C   UNL     1       6.619   4.045   1.732  1.00  0.00     0.112 C 
HETATM    4  C   UNL     1       5.746   5.239   1.576  1.00  0.00     0.269 C 
HETATM    5  O   UNL     1       5.922   6.298   2.168  1.00  0.00    -0.266 OA
HETATM    6  N   UNL     1       4.710   5.084   0.704  1.00  0.00    -0.274 N 
HETATM    7  C   UNL     1       4.192   3.882   0.319  1.00  0.00     0.330 C 
HETATM    8  O   UNL     1       3.096   3.857  -0.235  1.00  0.00    -0.246 OA
HETATM    9  H   UNL     1       4.103   5.879   0.579  1.00  0.00     0.173 HD
ENDROOT
BRANCH   3  10
HETATM   10  S   UNL     1       8.004   4.169   2.776  1.00  0.00    -0.082 SA
BRANCH  10  11
HETATM   11  C   UNL     1       9.179   5.048   1.771  1.00  0.00     0.005 A 
HETATM   12  C   UNL     1      10.011   5.979   2.407  1.00  0.00     0.019 A 
HETATM   13  C   UNL     1      10.978   6.679   1.685  1.00  0.00     0.001 A 
HETATM   14  C   UNL     1      11.127   6.448   0.320  1.00  0.00     0.000 A 
HETATM   15  C   UNL     1      10.326   5.502  -0.317  1.00  0.00     0.001 A 
HETATM   16  C   UNL     1       9.362   4.796   0.408  1.00  0.00     0.019 A 
ENDBRANCH  10  11
ENDBRANCH   3  10
BRANCH   2  17
HETATM   17  N   UNL     1       7.120   1.780   1.192  1.00  0.00    -0.287 NA
HETATM   18  H   UNL     1       6.729   0.975   1.660  1.00  0.00     0.125 HD
HETATM   19  H   UNL     1       7.985   2.029   1.678  1.00  0.00     0.125 HD
ENDBRANCH   2  17
BRANCH   1  20
HETATM   20  C   UNL     1       4.422   1.451   0.212  1.00  0.00     0.161 C 
BRANCH  20  21
HETATM   21  C   UNL     1       4.144   0.490   1.384  1.00  0.00     0.187 C 
BRANCH  21  22
HETATM   22  O   UNL     1       3.296   1.072   2.371  1.00  0.00    -0.394 OA
HETATM   23  C   UNL     1       3.098   0.180   3.467  1.00  0.00     0.201 C 
ENDBRANCH  21  22
ENDBRANCH  20  21
ENDBRANCH   1  20
TORSDOF 6
