REMARK  4 active torsions:
REMARK  status: ('A' for Active; 'I' for Inactive)
REMARK    1  A    between atoms: N_10  and  C_11 
REMARK    2  A    between atoms: C_11  and  C_12 
REMARK    3  A    between atoms: C_12  and  O_13 
REMARK    4  A    between atoms: C_12  and  C_14 
ROOT
HETATM    1  C   UNL     1       6.369  -0.216   4.189  1.00  0.00     0.181 C 
HETATM    2  N   UNL     1       6.107  -0.120   2.767  1.00  0.00    -0.261 N 
HETATM    3  N   UNL     1       6.320  -1.293   2.021  1.00  0.00    -0.306 N 
ATOM      4  HN  UNL     1       6.605  -2.154   2.487  1.00  0.00     0.186 HD
HETATM    5  C   UNL     1       6.151  -1.271   0.731  1.00  0.00     0.122 A 
HETATM    6  C   UNL     1       5.775  -0.061   0.070  1.00  0.00     0.032 A 
HETATM    7  C   UNL     1       5.561   0.302  -1.262  1.00  0.00     0.122 A 
HETATM    8  N   UNL     1       5.274   1.603  -1.382  1.00  0.00    -0.308 N 
ATOM      9  HN  UNL     1       5.080   2.126  -2.236  1.00  0.00     0.186 HD
HETATM   10  N   UNL     1       5.301   2.067  -0.106  1.00  0.00    -0.284 N 
HETATM   11  C   UNL     1       5.577   1.084   0.800  1.00  0.00     0.133 A 
HETATM   12  C   UNL     1       5.707   1.122   2.226  1.00  0.00     0.290 A 
HETATM   13  O   UNL     1       5.511   2.131   2.899  1.00  0.00    -0.264 OA
ENDROOT
BRANCH  10  14
HETATM   14  C   UNL     1       5.227   3.503   0.117  1.00  0.00     0.186 C 
BRANCH  14  15
HETATM   15  C   UNL     1       3.788   4.021   0.214  1.00  0.00     0.171 C 
BRANCH  15  16
HETATM   16  O   UNL     1       3.157   3.500   1.391  1.00  0.00    -0.389 OA
HETATM   17  H   UNL     1       3.657   3.818   2.165  1.00  0.00     0.210 HD
ENDBRANCH  15  16
BRANCH  15  18
HETATM   18  C   UNL     1       3.617   5.536   0.247  1.00  0.00    -0.026 A 
HETATM   19  C   UNL     1       2.313   6.059   0.352  1.00  0.00     0.010 A 
HETATM   20  C   UNL     1       2.077   7.436   0.373  1.00  0.00     0.002 A 
HETATM   21  C   UNL     1       3.144   8.324   0.285  1.00  0.00     0.024 A 
HETATM   22  C   UNL     1       4.440   7.827   0.181  1.00  0.00     0.034 A 
HETATM   23 CL   UNL     1       5.764   8.923   0.063  1.00  0.00    -0.084 Cl
HETATM   24  C   UNL     1       4.681   6.447   0.162  1.00  0.00     0.033 A 
ENDBRANCH  15  18
ENDBRANCH  14  15
ENDBRANCH  10  14
TORSDOF 4
