REMARK  5 active torsions:
REMARK  status: ('A' for Active; 'I' for Inactive)
REMARK    1  A    between atoms: O_2  and  C_3 
REMARK    2  A    between atoms: C_6  and  N_7 
REMARK       I    between atoms: N_7  and  C_8 
REMARK       I    between atoms: C_8  and  N_10 
REMARK    3  A    between atoms: N_10  and  C_11 
REMARK    4  A    between atoms: C_11  and  C_12 
REMARK    5  A    between atoms: C_12  and  N_14 
ROOT
HETATM    1  N   UNL     1       5.216   4.617   2.046  1.00  0.00    -0.308 N 
HETATM    2  C   UNL     1       6.449   4.558   2.654  1.00  0.00     0.320 C 
HETATM    3  O   UNL     1       6.949   3.560   3.161  1.00  0.00    -0.247 OA
HETATM    4  N   UNL     1       7.095   5.779   2.667  1.00  0.00    -0.341 N 
HETATM    5  H   UNL     1       4.796   5.534   2.000  1.00  0.00     0.170 HD
HETATM    6  H   UNL     1       6.934   6.353   1.850  1.00  0.00     0.164 HD
ENDROOT
BRANCH   1   7
HETATM    7  C   UNL     1       4.366   3.497   1.872  1.00  0.00     0.051 A 
HETATM    8  C   UNL     1       4.822   2.180   1.888  1.00  0.00     0.035 A 
HETATM    9  C   UNL     1       3.917   1.126   1.787  1.00  0.00     0.058 A 
HETATM   10  C   UNL     1       2.574   1.423   1.653  1.00  0.00     0.141 A 
HETATM   11  N   UNL     1       2.089   2.681   1.576  1.00  0.00    -0.345 N 
HETATM   12  C   UNL     1       2.997   3.684   1.684  1.00  0.00     0.119 A 
ATOM     13  HN  UNL     1       1.095   2.867   1.444  1.00  0.00     0.167 HD
BRANCH  10  14
HETATM   14  O   UNL     1       1.718   0.340   1.610  1.00  0.00    -0.341 OA
HETATM   15  C   UNL     1       0.348   0.713   1.541  1.00  0.00     0.211 C 
ENDBRANCH  10  14
ENDBRANCH   1   7
BRANCH   4  16
HETATM   16  C   UNL     1       8.439   5.786   3.234  1.00  0.00     0.159 C 
BRANCH  16  17
HETATM   17  C   UNL     1       9.130   7.174   3.333  1.00  0.00     0.236 C 
HETATM   18  C   UNL     1       8.227   8.097   4.174  1.00  0.00     0.044 C 
BRANCH  17  19
HETATM   19  N   UNL     1      10.494   7.079   3.933  1.00  0.00     0.098 N 
HETATM   20  C   UNL     1      11.220   8.373   3.991  1.00  0.00     0.299 C 
HETATM   21  C   UNL     1      11.702   8.868   2.617  1.00  0.00     0.198 C 
HETATM   22  O   UNL     1      12.543   7.901   1.976  1.00  0.00    -0.388 OA
HETATM   23  C   UNL     1      11.886   6.632   1.868  1.00  0.00     0.198 C 
HETATM   24  C   UNL     1      11.407   6.132   3.241  1.00  0.00     0.299 C 
ENDBRANCH  17  19
ENDBRANCH  16  17
ENDBRANCH   4  16
TORSDOF 5
