REMARK  7 active torsions:
REMARK  status: ('A' for Active; 'I' for Inactive)
REMARK    1  A    between atoms: C_2  and  C_3 
REMARK    2  A    between atoms: C_6  and  O_7 
REMARK    3  A    between atoms: O_7  and  C_8 
REMARK    4  A    between atoms: C_8  and  C_9 
REMARK    5  A    between atoms: C_9  and  O_10 
REMARK    6  A    between atoms: C_9  and  C_11 
REMARK    7  A    between atoms: C_11  and  N_12 
ROOT
HETATM    1  C   UNL     1       5.812   7.107   0.633  1.00  0.00     0.161 C 
ENDROOT
BRANCH   1   2
HETATM    2  C   UNL     1       5.669   5.573   0.583  1.00  0.00     0.209 C 
BRANCH   2   3
HETATM    3  O   UNL     1       4.327   5.276   0.190  1.00  0.00    -0.349 OA
BRANCH   3   4
HETATM    4  C   UNL     1       3.965   3.964   0.106  1.00  0.00     0.068 A 
HETATM    5  C   UNL     1       2.609   3.717   0.333  1.00  0.00     0.037 A 
HETATM    6  C   UNL     1       2.078   2.439   0.151  1.00  0.00     0.010 A 
HETATM    7  C   UNL     1       2.899   1.390  -0.273  1.00  0.00    -0.058 A 
HETATM    8  C   UNL     1       4.265   1.637  -0.470  1.00  0.00     0.010 A 
HETATM    9  C   UNL     1       4.798   2.917  -0.277  1.00  0.00     0.037 A 
BRANCH   7  10
HETATM   10  C   UNL     1       2.308   0.039  -0.584  1.00  0.00     0.034 C 
HETATM   11  C   UNL     1       1.895  -0.065  -2.047  1.00  0.00     0.010 C 
ENDBRANCH   7  10
ENDBRANCH   3   4
ENDBRANCH   2   3
ENDBRANCH   1   2
BRANCH   1  12
HETATM   12  O   UNL     1       4.864   7.619   1.580  1.00  0.00    -0.392 OA
HETATM   13  H   UNL     1       5.332   7.972   2.365  1.00  0.00     0.210 HD
ENDBRANCH   1  12
BRANCH   1  14
HETATM   14  C   UNL     1       7.267   7.512   0.960  1.00  0.00     0.166 C 
BRANCH  14  15
HETATM   15  N   UNL     1       7.467   8.963   0.988  1.00  0.00    -0.307 N 
HETATM   16  C   UNL     1       8.264   9.590   0.071  1.00  0.00     0.186 C 
HETATM   17  N   UNL     1       8.525  10.855   0.056  1.00  0.00    -0.355 N 
HETATM   18  C   UNL     1       7.902  11.643   0.991  1.00  0.00     0.017 C 
ATOM     19  HN  UNL     1       9.170  11.254  -0.626  1.00  0.00     0.166 HD
HETATM   20  C   UNL     1       8.169  13.119   0.851  1.00  0.00     0.069 C 
HETATM   21  C   UNL     1       7.099  11.160   1.957  1.00  0.00     0.028 C 
HETATM   22  C   UNL     1       6.295  11.944   2.945  1.00  0.00     0.056 C 
HETATM   23  C   UNL     1       6.969   9.685   2.048  1.00  0.00     0.256 C 
HETATM   24  O   UNL     1       6.436   9.157   3.024  1.00  0.00    -0.267 OA
ENDBRANCH  14  15
ENDBRANCH   1  14
TORSDOF 7
