REMARK  6 active torsions:
REMARK  status: ('A' for Active; 'I' for Inactive)
REMARK    1  A    between atoms: O_1  and  C_2 
REMARK    2  A    between atoms: C_2  and  C_3 
REMARK    3  A    between atoms: C_2  and  C_11 
REMARK    4  A    between atoms: C_3  and  O_4 
REMARK    5  A    between atoms: O_4  and  C_5 
REMARK    6  A    between atoms: C_11  and  N_12 
ROOT
HETATM    1  N   UNL     1       2.570  -1.789  -1.908  1.00  0.00    -0.271 N 
HETATM    2  N   UNL     1       3.441  -1.451  -2.880  1.00  0.00    -0.019 NA
HETATM    3  N   UNL     1       2.984  -1.953  -4.021  1.00  0.00    -0.282 N 
ATOM      4  HN  UNL     1       3.429  -1.863  -4.935  1.00  0.00     0.184 HD
HETATM    5  C   UNL     1       1.814  -2.612  -3.760  1.00  0.00     0.075 A 
HETATM    6  C   UNL     1       0.949  -3.314  -4.609  1.00  0.00     0.058 A 
HETATM    7  C   UNL     1      -0.205  -3.893  -4.059  1.00  0.00     0.058 A 
HETATM    8 CL   UNL     1      -1.250  -4.749  -5.141  1.00  0.00    -0.082 Cl
HETATM    9  C   UNL     1      -0.488  -3.774  -2.689  1.00  0.00     0.058 A 
HETATM   10 CL   UNL     1      -1.907  -4.467  -1.979  1.00  0.00    -0.082 Cl
HETATM   11  C   UNL     1       0.375  -3.080  -1.831  1.00  0.00     0.058 A 
HETATM   12  C   UNL     1       1.519  -2.515  -2.407  1.00  0.00     0.078 A 
ENDROOT
BRANCH   1  13
HETATM   13  C   UNL     1       2.863  -1.472  -0.526  1.00  0.00     0.180 C 
BRANCH  13  14
HETATM   14  C   UNL     1       2.291  -0.118  -0.093  1.00  0.00     0.161 C 
BRANCH  14  15
HETATM   15  O   UNL     1       0.861  -0.134  -0.192  1.00  0.00    -0.392 OA
HETATM   16  H   UNL     1       0.546   0.778  -0.055  1.00  0.00     0.210 HD
ENDBRANCH  14  15
BRANCH  14  17
HETATM   17  C   UNL     1       2.659   0.177   1.368  1.00  0.00     0.201 C 
BRANCH  17  18
HETATM   18  O   UNL     1       4.068   0.116   1.542  1.00  0.00    -0.383 OA
BRANCH  18  19
HETATM   19  C   UNL     1       4.526   0.410   2.870  1.00  0.00     0.125 C 
HETATM   20  C   UNL     1       6.056   0.400   2.820  1.00  0.00     0.058 C 
HETATM   21  C   UNL     1       6.571  -1.015   2.573  1.00  0.00     0.170 C 
HETATM   22  O   UNL     1       6.076  -1.919   3.563  1.00  0.00    -0.391 OA
HETATM   23  C   UNL     1       4.651  -1.988   3.567  1.00  0.00     0.170 C 
HETATM   24  C   UNL     1       4.063  -0.624   3.900  1.00  0.00     0.058 C 
ENDBRANCH  18  19
ENDBRANCH  17  18
ENDBRANCH  14  17
ENDBRANCH  13  14
ENDBRANCH   1  13
TORSDOF 6
