REMARK  4 active torsions:
REMARK  status: ('A' for Active; 'I' for Inactive)
REMARK       I    between atoms: N_2  and  C_3 
REMARK    1  A    between atoms: C_3  and  C_5 
REMARK    2  A    between atoms: N_10  and  C_11 
REMARK    3  A    between atoms: C_11  and  C_12 
REMARK       I    between atoms: C_12  and  N_14 
REMARK    4  A    between atoms: N_14  and  C_15 
ROOT
HETATM    1  C   UNL     1      10.609   3.374  -2.987  1.00  0.00     0.047 A 
HETATM    2  C   UNL     1      11.266   2.128  -3.326  1.00  0.00     0.024 A 
HETATM    3  C   UNL     1      10.597   0.967  -3.281  1.00  0.00     0.075 A 
HETATM    4  C   UNL     1       9.157   0.935  -2.907  1.00  0.00     0.247 A 
HETATM    5  O   UNL     1       8.559  -0.135  -2.918  1.00  0.00    -0.268 OA
HETATM    6  N   UNL     1       8.588   2.166  -2.592  1.00  0.00    -0.315 N 
HETATM    7  C   UNL     1       9.313   3.350  -2.627  1.00  0.00     0.111 A 
ENDROOT
BRANCH   6   8
HETATM    8  C   UNL     1       7.165   2.205  -2.247  1.00  0.00     0.234 C 
BRANCH   8   9
HETATM    9  C   UNL     1       6.206   2.496  -3.412  1.00  0.00     0.236 C 
HETATM   10  O   UNL     1       4.986   2.439  -3.249  1.00  0.00    -0.272 OA
HETATM   11  N   UNL     1       6.777   2.915  -4.597  1.00  0.00    -0.355 N 
HETATM   12  H   UNL     1       7.777   2.802  -4.704  1.00  0.00     0.162 HD
BRANCH  11  13
HETATM   13  C   UNL     1       5.967   3.220  -5.776  1.00  0.00     0.088 C 
HETATM   14  C   UNL     1       5.618   1.939  -6.550  1.00  0.00     0.025 C 
HETATM   15  C   UNL     1       6.801   1.382  -7.342  1.00  0.00     0.002 C 
HETATM   16  C   UNL     1       7.411   2.435  -8.260  1.00  0.00     0.001 C 
HETATM   17  C   UNL     1       7.814   3.687  -7.486  1.00  0.00     0.006 C 
HETATM   18  C   UNL     1       6.627   4.266  -6.703  1.00  0.00     0.004 C 
HETATM   19  C   UNL     1       7.036   5.536  -5.955  1.00  0.00     0.012 C 
ENDBRANCH  11  13
ENDBRANCH   8   9
ENDBRANCH   6   8
BRANCH   1  20
HETATM   20  C   UNL     1      11.238   4.725  -3.132  1.00  0.00     0.252 C 
HETATM   21  N   UNL     1      12.609   4.758  -3.084  1.00  0.00    -0.361 N 
HETATM   22  C   UNL     1      13.312   6.006  -3.256  1.00  0.00     0.149 C 
HETATM   23  H   UNL     1      13.137   3.943  -2.812  1.00  0.00     0.162 HD
HETATM   24  O   UNL     1      10.556   5.733  -3.284  1.00  0.00    -0.268 OA
ENDBRANCH   1  20
TORSDOF 4
