REMARK  2 active torsions:
REMARK  status: ('A' for Active; 'I' for Inactive)
REMARK       I    between atoms: N_2  and  C_3 
REMARK    1  A    between atoms: C_3  and  C_5 
REMARK    2  A    between atoms: N_7  and  C_11 
ROOT
HETATM    1  C   UNL     1       4.577   0.828  -1.153  1.00  0.00     0.231 C 
HETATM    2  C   UNL     1       5.121   1.854  -2.170  1.00  0.00     0.166 C 
HETATM    3  N   UNL     1       4.910   1.387  -3.556  1.00  0.00    -0.362 N 
HETATM    4  C   UNL     1       5.390   0.031  -3.803  1.00  0.00     0.150 C 
HETATM    5  C   UNL     1       4.761  -0.919  -2.777  1.00  0.00     0.189 C 
HETATM    6  O   UNL     1       5.023  -0.517  -1.424  1.00  0.00    -0.373 OA
ENDROOT
BRANCH   3   7
HETATM    7  C   UNL     1       4.242   2.190  -4.454  1.00  0.00     0.105 A 
HETATM    8  C   UNL     1       3.987   1.809  -5.761  1.00  0.00     0.073 A 
HETATM    9  C   UNL     1       3.310   2.690  -6.590  1.00  0.00     0.009 A 
HETATM   10  C   UNL     1       3.063   2.349  -8.028  1.00  0.00     0.068 C 
HETATM   11  N   UNL     1       2.893   3.896  -6.173  1.00  0.00    -0.356 N 
HETATM   12  C   UNL     1       3.175   4.185  -4.899  1.00  0.00     0.182 A 
ATOM     13  HN  UNL     1       2.397   4.545  -6.784  1.00  0.00     0.166 HD
HETATM   14  N   UNL     1       3.834   3.400  -4.036  1.00  0.00    -0.339 N 
ATOM     15  HN  UNL     1       4.022   3.714  -3.084  1.00  0.00     0.168 HD
ENDBRANCH   3   7
BRANCH   1  16
HETATM   16  C   UNL     1       3.054   0.971  -0.951  1.00  0.00     0.247 C 
HETATM   17  N   UNL     1       2.440  -0.213  -0.581  1.00  0.00    -0.363 N 
HETATM   18  C   UNL     1       1.011  -0.300  -0.460  1.00  0.00     0.149 C 
HETATM   19  H   UNL     1       3.002  -1.057  -0.624  1.00  0.00     0.162 HD
HETATM   20  O   UNL     1       2.447   2.034  -1.020  1.00  0.00    -0.271 OA
ENDBRANCH   1  16
TORSDOF 2
