REMARK  5 active torsions:
REMARK  status: ('A' for Active; 'I' for Inactive)
REMARK    1  A    between atoms: C_7  and  O_8 
REMARK    2  A    between atoms: O_8  and  C_9 
REMARK    3  A    between atoms: C_9  and  C_10 
REMARK    4  A    between atoms: C_10  and  N_11 
REMARK       I    between atoms: N_11  and  C_12 
REMARK       I    between atoms: C_12  and  N_14 
REMARK    5  A    between atoms: N_14  and  C_15 
ROOT
HETATM    1  N   UNL     1       2.837  -4.421   2.733  1.00  0.00    -0.341 N 
HETATM    2  C   UNL     1       2.433  -5.461   3.554  1.00  0.00     0.322 C 
HETATM    3  O   UNL     1       1.633  -5.293   4.464  1.00  0.00    -0.247 OA
HETATM    4  N   UNL     1       3.086  -6.623   3.239  1.00  0.00    -0.288 N 
HETATM    5  H   UNL     1       2.935  -4.666   1.756  1.00  0.00     0.164 HD
HETATM    6  H   UNL     1       3.932  -6.570   2.704  1.00  0.00     0.172 HD
ENDROOT
BRANCH   1   7
HETATM    7  C   UNL     1       2.247  -3.117   2.969  1.00  0.00     0.150 C 
BRANCH   7   8
HETATM    8  C   UNL     1       2.841  -2.043   2.069  1.00  0.00     0.188 C 
BRANCH   8   9
HETATM    9  O   UNL     1       2.456  -2.296   0.711  1.00  0.00    -0.384 OA
BRANCH   9  10
HETATM   10  C   UNL     1       2.965  -1.328  -0.216  1.00  0.00     0.125 C 
HETATM   11  C   UNL     1       2.428   0.098   0.045  1.00  0.00     0.010 C 
HETATM   12  C   UNL     1       0.899   0.143   0.165  1.00  0.00     0.012 C 
HETATM   13  C   UNL     1       2.944   1.065  -1.029  1.00  0.00     0.007 C 
HETATM   14  C   UNL     1       2.613   0.606  -2.445  1.00  0.00     0.001 C 
HETATM   15  C   UNL     1       3.089  -0.821  -2.704  1.00  0.00     0.002 C 
HETATM   16  C   UNL     1       2.611  -1.801  -1.634  1.00  0.00     0.032 C 
ENDBRANCH   9  10
ENDBRANCH   8   9
ENDBRANCH   7   8
ENDBRANCH   1   7
BRANCH   4  17
HETATM   17  C   UNL     1       2.841  -7.769   3.944  1.00  0.00     0.168 A 
HETATM   18  N   UNL     1       1.848  -8.079   4.744  1.00  0.00    -0.279 N 
HETATM   19  N   UNL     1       2.005  -9.335   5.299  1.00  0.00    -0.303 N 
ATOM     20  HN  UNL     1       1.055  -7.466   4.934  1.00  0.00     0.189 HD
HETATM   21  C   UNL     1       3.114  -9.911   4.888  1.00  0.00     0.160 A 
ATOM     22  HN  UNL     1       1.343  -9.762   5.947  1.00  0.00     0.186 HD
HETATM   23  S   UNL     1       4.023  -8.990   3.760  1.00  0.00    -0.046 SA
ENDBRANCH   4  17
TORSDOF 5
