REMARK  4 active torsions:
REMARK  status: ('A' for Active; 'I' for Inactive)
REMARK    1  A    between atoms: C_2  and  C_4 
REMARK    2  A    between atoms: C_8  and  C_9 
REMARK    3  A    between atoms: C_9  and  C_10 
REMARK    4  A    between atoms: C_10  and  N_11 
REMARK       I    between atoms: N_11  and  C_12 
REMARK       I    between atoms: C_12  and  N_14 
ROOT
HETATM    1  C   UNL     1       4.125   3.143   5.338  1.00  0.00     0.132 C 
ENDROOT
BRANCH   1   2
HETATM    2  C   UNL     1       3.635   1.809   5.899  1.00  0.00     0.106 C 
BRANCH   2   3
HETATM    3  C   UNL     1       3.700   0.712   4.898  1.00  0.00     0.149 A 
HETATM    4  O   UNL     1       4.011  -0.521   5.395  1.00  0.00    -0.223 OA
HETATM    5  N   UNL     1       3.979  -1.406   4.322  1.00  0.00    -0.247 N 
HETATM    6  C   UNL     1       3.647  -0.627   3.285  1.00  0.00     0.107 A 
ATOM      7  HN  UNL     1       4.164  -2.409   4.325  1.00  0.00     0.196 HD
HETATM    8  N   UNL     1       3.466   0.703   3.601  1.00  0.00    -0.327 N 
ATOM      9  HN  UNL     1       3.216   1.480   2.989  1.00  0.00     0.169 HD
BRANCH   6  10
HETATM   10  C   UNL     1       3.473  -1.197   1.914  1.00  0.00     0.047 C 
HETATM   11  C   UNL     1       2.087  -0.902   1.340  1.00  0.00     0.017 C 
HETATM   12  C   UNL     1       4.564  -0.727   0.952  1.00  0.00     0.017 C 
ENDBRANCH   6  10
ENDBRANCH   2   3
ENDBRANCH   1   2
BRANCH   1  13
HETATM   13  N   UNL     1       4.075   4.262   6.284  1.00  0.00    -0.343 N 
HETATM   14  C   UNL     1       4.833   4.264   7.430  1.00  0.00     0.318 C 
HETATM   15  O   UNL     1       5.511   3.294   7.754  1.00  0.00    -0.247 OA
HETATM   16  N   UNL     1       4.768   5.414   8.190  1.00  0.00    -0.329 N 
HETATM   17  C   UNL     1       3.924   6.594   7.966  1.00  0.00     0.159 C 
HETATM   18  C   UNL     1       5.455   5.441   9.488  1.00  0.00     0.159 C 
HETATM   19  C   UNL     1       4.738   7.885   8.195  1.00  0.00     0.136 C 
HETATM   20  C   UNL     1       3.849   9.116   8.103  1.00  0.00     0.041 C 
HETATM   21  O   UNL     1       5.350   7.886   9.498  1.00  0.00    -0.378 OA
HETATM   22  C   UNL     1       6.231   6.758   9.660  1.00  0.00     0.136 C 
HETATM   23  C   UNL     1       6.861   6.860  11.042  1.00  0.00     0.041 C 
HETATM   24  H   UNL     1       3.992   5.160   5.841  1.00  0.00     0.164 HD
ENDBRANCH   1  13
TORSDOF 4
