REMARK  3 active torsions:
REMARK  status: ('A' for Active; 'I' for Inactive)
REMARK    1  A    between atoms: C_8  and  N_9 
REMARK       I    between atoms: N_9  and  C_10 
REMARK       I    between atoms: C_10  and  N_12 
REMARK    2  A    between atoms: N_12  and  C_13 
REMARK    3  A    between atoms: C_13  and  C_14 
ROOT
HETATM    1  N   UNL     1       3.243   2.676   0.070  1.00  0.00    -0.305 N 
HETATM    2  C   UNL     1       2.009   3.265   0.215  1.00  0.00     0.320 C 
HETATM    3  O   UNL     1       0.944   2.693   0.420  1.00  0.00    -0.247 OA
HETATM    4  N   UNL     1       2.050   4.640   0.128  1.00  0.00    -0.340 N 
HETATM    5  H   UNL     1       4.045   3.286   0.068  1.00  0.00     0.171 HD
HETATM    6  H   UNL     1       2.790   5.073  -0.405  1.00  0.00     0.164 HD
ENDROOT
BRANCH   1   7
HETATM    7  C   UNL     1       3.487   1.303   0.056  1.00  0.00     0.092 A 
HETATM    8  C   UNL     1       4.768   0.660   0.005  1.00  0.00     0.058 A 
HETATM    9  C   UNL     1       6.129   1.240  -0.038  1.00  0.00     0.072 C 
HETATM   10  N   UNL     1       4.651  -0.671   0.000  1.00  0.00    -0.263 N 
HETATM   11  O   UNL     1       3.307  -0.931   0.052  1.00  0.00    -0.240 OA
ATOM     12  HN  UNL     1       5.408  -1.354  -0.035  1.00  0.00     0.194 HD
HETATM   13  C   UNL     1       2.607   0.236   0.083  1.00  0.00     0.101 A 
HETATM   14  C   UNL     1       1.142   0.041   0.132  1.00  0.00     0.081 C 
ENDBRANCH   1   7
BRANCH   4  15
HETATM   15  C   UNL     1       0.802   5.397   0.210  1.00  0.00     0.156 C 
BRANCH  15  16
HETATM   16  C   UNL     1       0.158   5.695  -1.148  1.00  0.00     0.139 C 
HETATM   17  C   UNL     1      -0.153   4.515  -2.054  1.00  0.00     0.035 C 
HETATM   18  C   UNL     1      -0.189   5.138  -3.435  1.00  0.00     0.029 C 
HETATM   19  C   UNL     1       0.501   6.481  -3.274  1.00  0.00     0.168 C 
HETATM   20  O   UNL     1       1.027   6.526  -1.941  1.00  0.00    -0.384 OA
ENDBRANCH  15  16
ENDBRANCH   4  15
TORSDOF 3
