REMARK  5 active torsions:
REMARK  status: ('A' for Active; 'I' for Inactive)
REMARK    1  A    between atoms: O_1  and  C_2 
REMARK    2  A    between atoms: C_2  and  C_3 
REMARK    3  A    between atoms: C_3  and  O_4 
REMARK    4  A    between atoms: O_4  and  C_5 
REMARK    5  A    between atoms: N_9  and  C_11 
ROOT
HETATM    1  C   UNL     1       4.780   1.866  -2.097  1.00  0.00     0.139 C 
HETATM    2  C   UNL     1       5.411   3.057  -1.367  1.00  0.00     0.035 C 
HETATM    3  C   UNL     1       4.341   3.951  -0.750  1.00  0.00     0.022 C 
HETATM    4  C   UNL     1       3.355   4.451  -1.806  1.00  0.00     0.124 C 
HETATM    5  N   UNL     1       2.785   3.336  -2.560  1.00  0.00    -0.362 N 
HETATM    6  C   UNL     1       3.739   2.369  -3.127  1.00  0.00     0.156 C 
ENDROOT
BRANCH   5   7
HETATM    7  C   UNL     1       1.457   2.970  -2.393  1.00  0.00     0.142 A 
HETATM    8  N   UNL     1       1.130   1.658  -2.527  1.00  0.00    -0.350 N 
HETATM    9  C   UNL     1      -0.156   1.272  -2.347  1.00  0.00     0.090 A 
ATOM     10  HN  UNL     1       1.846   0.970  -2.761  1.00  0.00     0.166 HD
HETATM   11  C   UNL     1      -1.188   2.139  -2.046  1.00  0.00     0.020 A 
HETATM   12  C   UNL     1      -0.883   3.486  -1.955  1.00  0.00     0.047 A 
HETATM   13  C   UNL     1       0.434   3.900  -2.143  1.00  0.00     0.160 A 
HETATM   14  F   UNL     1       0.669   5.222  -2.126  1.00  0.00    -0.202 F 
ENDBRANCH   5   7
BRANCH   1  15
HETATM   15  O   UNL     1       4.260   0.972  -1.099  1.00  0.00    -0.382 OA
BRANCH  15  16
HETATM   16  C   UNL     1       3.836  -0.280  -1.636  1.00  0.00     0.194 C 
BRANCH  16  17
HETATM   17  C   UNL     1       3.501  -1.246  -0.508  1.00  0.00     0.190 C 
BRANCH  17  18
HETATM   18  O   UNL     1       3.014  -2.472  -1.048  1.00  0.00    -0.399 OA
HETATM   19  H   UNL     1       2.745  -3.022  -0.294  1.00  0.00     0.209 HD
ENDBRANCH  17  18
ENDBRANCH  16  17
ENDBRANCH  15  16
ENDBRANCH   1  15
TORSDOF 5
