REMARK  6 active torsions:
REMARK  status: ('A' for Active; 'I' for Inactive)
REMARK    1  A    between atoms: C_2  and  C_3 
REMARK       I    between atoms: N_5  and  C_9 
REMARK    2  A    between atoms: C_9  and  C_11 
REMARK    3  A    between atoms: C_11  and  N_12 
REMARK    4  A    between atoms: N_12  and  C_13 
REMARK    5  A    between atoms: C_13  and  C_15 
REMARK    6  A    between atoms: C_15  and  N_17 
ROOT
HETATM    1  N   UNL     1      -1.468  -4.150   0.912  1.00  0.00     0.098 N 
HETATM    2  H   UNL     1      -1.748  -3.559   1.703  1.00  0.00     0.317 HD
ENDROOT
BRANCH   1   3
HETATM    3  C   UNL     1      -0.260  -3.537   0.332  1.00  0.00     0.372 C 
BRANCH   3   4
HETATM    4  C   UNL     1       0.787  -3.257   1.427  1.00  0.00     0.248 C 
HETATM    5  N   UNL     1       2.014  -2.772   0.998  1.00  0.00    -0.346 N 
HETATM    6  C   UNL     1       2.394  -2.486  -0.388  1.00  0.00     0.157 C 
HETATM    7  C   UNL     1       3.114  -2.630   1.952  1.00  0.00     0.152 C 
HETATM    8  C   UNL     1       3.103  -1.119  -0.506  1.00  0.00     0.139 C 
HETATM    9  O   UNL     1       4.195  -1.032   0.435  1.00  0.00    -0.383 OA
HETATM   10  C   UNL     1       3.792  -1.270   1.795  1.00  0.00     0.188 C 
HETATM   11  O   UNL     1       0.539  -3.432   2.623  1.00  0.00    -0.271 OA
BRANCH   8  12
HETATM   12  C   UNL     1       2.177   0.102  -0.363  1.00  0.00     0.029 C 
HETATM   13  C   UNL     1       1.123   0.217  -1.453  1.00  0.00     0.007 C 
ENDBRANCH   8  12
ENDBRANCH   3   4
ENDBRANCH   1   3
BRANCH   1  14
HETATM   14  C   UNL     1      -2.581  -4.286  -0.048  1.00  0.00     0.241 C 
HETATM   15  C   UNL     1      -2.191  -5.263  -1.169  1.00  0.00     0.045 C 
BRANCH  14  16
HETATM   16  C   UNL     1      -3.904  -4.761   0.631  1.00  0.00     0.136 C 
HETATM   17  C   UNL     1      -3.795  -6.119   1.337  1.00  0.00     0.036 C 
BRANCH  16  18
HETATM   18  N   UNL     1      -4.463  -3.730   1.508  1.00  0.00    -0.297 N 
HETATM   19  C   UNL     1      -4.221  -3.537   2.841  1.00  0.00     0.112 A 
HETATM   20  C   UNL     1      -5.006  -2.478   3.228  1.00  0.00     0.037 A 
HETATM   21  C   UNL     1      -5.676  -2.087   2.057  1.00  0.00     0.108 A 
HETATM   22  N   UNL     1      -5.341  -2.836   1.003  1.00  0.00    -0.310 N 
ATOM     23  HN  UNL     1      -5.671  -2.752   0.041  1.00  0.00     0.186 HD
ENDBRANCH  16  18
ENDBRANCH  14  16
ENDBRANCH   1  14
TORSDOF 6
