REMARK  4 active torsions:
REMARK  status: ('A' for Active; 'I' for Inactive)
REMARK    1  A    between atoms: C_2  and  C_3 
REMARK    2  A    between atoms: C_2  and  N_11 
REMARK    3  A    between atoms: C_3  and  C_4 
REMARK    4  A    between atoms: N_11  and  C_12 
ROOT
HETATM    1  C   UNL     1       2.341  -0.747  -1.252  1.00  0.00     0.043 C 
HETATM    2  C   UNL     1       2.231   0.180  -0.032  1.00  0.00     0.222 C 
ENDROOT
BRANCH   2   3
HETATM    3  C   UNL     1       0.725   0.267   0.328  1.00  0.00     0.093 C 
BRANCH   3   4
HETATM    4  C   UNL     1       0.383   1.133   1.496  1.00  0.00     0.029 A 
HETATM    5  C   UNL     1       0.225   0.730   2.842  1.00  0.00     0.052 A 
HETATM    6  C   UNL     1      -0.192   1.858   3.511  1.00  0.00     0.024 A 
HETATM    7  C   UNL     1      -0.554   2.089   4.922  1.00  0.00     0.070 C 
HETATM    8  N   UNL     1      -0.238   2.845   2.566  1.00  0.00    -0.305 N 
HETATM    9  N   UNL     1       0.082   2.428   1.331  1.00  0.00    -0.305 N 
HETATM   10  H   UNL     1      -0.498   3.818   2.690  1.00  0.00     0.186 HD
ATOM     11  HN  UNL     1       0.093   2.971   0.468  1.00  0.00     0.186 HD
ENDBRANCH   3   4
ENDBRANCH   2   3
BRANCH   2  12
HETATM   12  N   UNL     1       3.047  -0.286   1.100  1.00  0.00     0.093 N 
HETATM   13  H   UNL     1       2.663  -1.157   1.467  1.00  0.00     0.316 HD
BRANCH  12  14
HETATM   14  C   UNL     1       4.489  -0.440   0.892  1.00  0.00     0.228 C 
HETATM   15  C   UNL     1       5.152  -0.891   2.215  1.00  0.00     0.036 C 
HETATM   16  C   UNL     1       6.529  -0.234   2.269  1.00  0.00     0.003 C 
HETATM   17  C   UNL     1       6.768   0.297   0.865  1.00  0.00     0.011 C 
HETATM   18  C   UNL     1       5.371   0.740   0.378  1.00  0.00    -0.017 C 
HETATM   19  C   UNL     1       5.388   0.865  -1.152  1.00  0.00     0.017 C 
HETATM   20  C   UNL     1       5.024   2.112   0.983  1.00  0.00     0.017 C 
ENDBRANCH  12  14
ENDBRANCH   2  12
TORSDOF 4
