REMARK  5 active torsions:
REMARK  status: ('A' for Active; 'I' for Inactive)
REMARK    1  A    between atoms: C_2  and  C_5 
REMARK    2  A    between atoms: C_5  and  N_6 
REMARK       I    between atoms: N_6  and  C_7 
REMARK       I    between atoms: C_7  and  N_9 
REMARK    3  A    between atoms: N_9  and  C_10 
REMARK    4  A    between atoms: C_10  and  C_11 
REMARK    5  A    between atoms: C_14  and  N_18 
ROOT
HETATM    1  C   UNL     1       8.695   3.276  -1.325  1.00  0.00    -0.025 A 
HETATM    2  C   UNL     1       9.560   4.365  -1.307  1.00  0.00     0.014 A 
HETATM    3  C   UNL     1      10.943   4.157  -1.341  1.00  0.00     0.049 A 
HETATM    4  C   UNL     1      11.469   2.865  -1.390  1.00  0.00     0.103 A 
HETATM    5  N   UNL     1      10.631   1.809  -1.359  1.00  0.00    -0.352 N 
ATOM      6  HN  UNL     1      11.000   0.858  -1.358  1.00  0.00     0.166 HD
HETATM    7  C   UNL     1       9.289   2.024  -1.329  1.00  0.00     0.098 A 
ENDROOT
BRANCH   1   8
HETATM    8  C   UNL     1       7.205   3.451  -1.378  1.00  0.00     0.164 C 
BRANCH   8   9
HETATM    9  N   UNL     1       6.588   3.570  -0.072  1.00  0.00    -0.339 N 
HETATM   10  C   UNL     1       5.232   3.778  -0.015  1.00  0.00     0.316 C 
HETATM   11  N   UNL     1       4.803   4.024   1.259  1.00  0.00    -0.335 N 
HETATM   12  O   UNL     1       4.490   3.772  -0.988  1.00  0.00    -0.247 OA
HETATM   13  H   UNL     1       5.330   3.551   1.981  1.00  0.00     0.164 HD
HETATM   14  H   UNL     1       7.124   4.036   0.645  1.00  0.00     0.164 HD
BRANCH  11  15
HETATM   15  C   UNL     1       3.371   4.229   1.512  1.00  0.00     0.241 C 
BRANCH  15  16
HETATM   16  C   UNL     1       2.514   2.960   1.620  1.00  0.00     0.403 C 
HETATM   17  F   UNL     1       3.254   1.833   1.528  1.00  0.00    -0.169 F 
HETATM   18  F   UNL     1       1.548   2.912   0.681  1.00  0.00    -0.169 F 
HETATM   19  F   UNL     1       1.898   2.923   2.831  1.00  0.00    -0.169 F 
ENDBRANCH  15  16
ENDBRANCH  11  15
ENDBRANCH   8   9
ENDBRANCH   1   8
BRANCH   4  20
HETATM   20  N   UNL     1      12.833   2.644  -1.405  1.00  0.00    -0.363 N 
HETATM   21  C   UNL     1      13.780   3.544  -2.080  1.00  0.00     0.150 C 
HETATM   22  C   UNL     1      14.424   2.856  -3.297  1.00  0.00     0.187 C 
HETATM   23  O   UNL     1      15.021   1.600  -2.944  1.00  0.00    -0.388 OA
HETATM   24  C   UNL     1      14.016   0.712  -2.422  1.00  0.00     0.187 C 
HETATM   25  C   UNL     1      13.357   1.289  -1.160  1.00  0.00     0.150 C 
ENDBRANCH   4  20
TORSDOF 5
