REMARK  7 active torsions:
REMARK  status: ('A' for Active; 'I' for Inactive)
REMARK    1  A    between atoms: C_2  and  C_4 
REMARK    2  A    between atoms: C_4  and  C_5 
REMARK    3  A    between atoms: C_5  and  N_6 
REMARK    4  A    between atoms: C_5  and  C_13 
REMARK       I    between atoms: C_13  and  N_15 
REMARK    5  A    between atoms: N_15  and  C_16 
REMARK    6  A    between atoms: C_16  and  C_17 
REMARK    7  A    between atoms: C_17  and  C_18 
ROOT
HETATM    1  C   UNL     1       4.988   1.504  -2.409  1.00  0.00     0.240 C 
HETATM    2  O   UNL     1       4.382   1.586  -3.477  1.00  0.00    -0.271 OA
HETATM    3  N   UNL     1       6.178   2.164  -2.180  1.00  0.00    -0.359 N 
HETATM    4  H   UNL     1       6.797   1.738  -1.486  1.00  0.00     0.162 HD
ENDROOT
BRANCH   1   5
HETATM    5  C   UNL     1       4.518   0.609  -1.248  1.00  0.00     0.179 C 
BRANCH   5   6
HETATM    6  C   UNL     1       2.978   0.656  -1.159  1.00  0.00     0.039 C 
BRANCH   6   7
HETATM    7  C   UNL     1       2.344  -0.169  -0.022  1.00  0.00    -0.020 C 
HETATM    8  C   UNL     1       2.778   0.304   1.365  1.00  0.00     0.009 C 
HETATM    9  C   UNL     1       0.818  -0.090  -0.138  1.00  0.00     0.009 C 
ENDBRANCH   6   7
ENDBRANCH   5   6
BRANCH   5  10
HETATM   10  N   UNL     1       5.047  -0.758  -1.382  1.00  0.00    -0.339 N 
HETATM   11  C   UNL     1       4.718  -1.537  -2.573  1.00  0.00     0.127 C 
HETATM   12  C   UNL     1       4.796  -3.032  -2.299  1.00  0.00     0.020 C 
HETATM   13  C   UNL     1       6.157  -3.395  -1.721  1.00  0.00     0.011 C 
HETATM   14  C   UNL     1       6.502  -2.517  -0.529  1.00  0.00     0.103 C 
HETATM   15  C   UNL     1       6.269  -1.038  -0.775  1.00  0.00     0.220 C 
HETATM   16  O   UNL     1       7.020  -0.169  -0.339  1.00  0.00    -0.273 OA
ENDBRANCH   5  10
ENDBRANCH   1   5
BRANCH   3  17
HETATM   17  C   UNL     1       6.771   3.012  -3.198  1.00  0.00     0.127 C 
BRANCH  17  18
HETATM   18  C   UNL     1       5.960   4.294  -3.470  1.00  0.00     0.059 C 
BRANCH  18  19
HETATM   19  C   UNL     1       6.576   5.087  -4.588  1.00  0.00    -0.041 A 
HETATM   20  C   UNL     1       6.222   4.853  -5.917  1.00  0.00     0.010 A 
HETATM   21  C   UNL     1       6.903   5.510  -6.938  1.00  0.00     0.025 A 
HETATM   22  C   UNL     1       7.926   6.390  -6.604  1.00  0.00     0.005 A 
HETATM   23  C   UNL     1       8.766   7.031  -7.667  1.00  0.00     0.068 C 
HETATM   24  N   UNL     1       8.259   6.666  -5.321  1.00  0.00    -0.369 N 
HETATM   25  C   UNL     1       7.580   6.017  -4.348  1.00  0.00     0.095 A 
ATOM     26  HN  UNL     1       8.993   7.337  -5.097  1.00  0.00     0.165 HD
ENDBRANCH  18  19
ENDBRANCH  17  18
ENDBRANCH   3  17
TORSDOF 7
