REMARK  5 active torsions:
REMARK  status: ('A' for Active; 'I' for Inactive)
REMARK    1  A    between atoms: N_1  and  C_2 
REMARK    2  A    between atoms: C_5  and  C_8 
REMARK    3  A    between atoms: N_17  and  C_18 
REMARK    4  A    between atoms: C_18  and  C_19 
REMARK    5  A    between atoms: C_19  and  O_20 
ROOT
HETATM    1  C   UNL     1       6.596   0.059  -0.631  1.00  0.00     0.119 A 
HETATM    2  N   UNL     1       7.274   1.182  -0.803  1.00  0.00    -0.340 N 
ATOM      3  HN  UNL     1       6.906   2.130  -0.725  1.00  0.00     0.167 HD
HETATM    4  C   UNL     1       8.563   0.832  -1.105  1.00  0.00     0.060 A 
HETATM    5  C   UNL     1       9.669   1.657  -1.360  1.00  0.00     0.032 A 
HETATM    6  C   UNL     1      10.901   1.062  -1.653  1.00  0.00     0.002 A 
HETATM    7  C   UNL     1      11.024  -0.327  -1.697  1.00  0.00     0.002 A 
HETATM    8  C   UNL     1       9.925  -1.159  -1.448  1.00  0.00     0.032 A 
HETATM    9  C   UNL     1       8.698  -0.546  -1.148  1.00  0.00     0.063 A 
HETATM   10  N   UNL     1       7.435  -1.030  -0.850  1.00  0.00    -0.329 N 
ENDROOT
BRANCH   1  11
HETATM   11  C   UNL     1       5.146   0.047  -0.357  1.00  0.00     0.008 C 
HETATM   12  C   UNL     1       4.360   1.084  -0.885  1.00  0.00     0.017 C 
HETATM   13  C   UNL     1       2.969   1.095  -0.723  1.00  0.00     0.024 C 
HETATM   14  C   UNL     1       2.322   0.045  -0.077  1.00  0.00     0.005 C 
HETATM   15  C   UNL     1       3.105  -0.929   0.543  1.00  0.00     0.024 C 
HETATM   16  C   UNL     1       4.501  -0.924   0.413  1.00  0.00     0.017 C 
BRANCH  14  17
HETATM   17  N   UNL     1       0.944   0.093   0.151  1.00  0.00    -0.303 NA
HETATM   18  H   UNL     1       0.433   0.631  -0.543  1.00  0.00     0.124 HD
HETATM   19  H   UNL     1       0.522  -0.816   0.313  1.00  0.00     0.124 HD
ENDBRANCH  14  17
ENDBRANCH   1  11
BRANCH  10  20
HETATM   20  C   UNL     1       7.111  -2.445  -0.778  1.00  0.00     0.157 C 
BRANCH  20  21
HETATM   21  C   UNL     1       6.060  -2.936  -1.772  1.00  0.00     0.184 C 
BRANCH  21  22
HETATM   22  O   UNL     1       6.507  -2.814  -3.115  1.00  0.00    -0.399 OA
HETATM   23  H   UNL     1       6.450  -1.870  -3.355  1.00  0.00     0.209 HD
ENDBRANCH  21  22
ENDBRANCH  20  21
ENDBRANCH  10  20
TORSDOF 5
