REMARK  7 active torsions:
REMARK  status: ('A' for Active; 'I' for Inactive)
REMARK    1  A    between atoms: C_2  and  C_3 
REMARK       I    between atoms: C_2  and  N_12 
REMARK    2  A    between atoms: C_3  and  N_4 
REMARK    3  A    between atoms: N_12  and  C_13 
REMARK    4  A    between atoms: C_13  and  C_14 
REMARK    5  A    between atoms: C_14  and  C_15 
REMARK    6  A    between atoms: C_15  and  O_16 
REMARK    7  A    between atoms: O_16  and  C_17 
ROOT
HETATM    1  O   UNL     1       3.390  -1.305  -2.554  1.00  0.00    -0.272 OA
HETATM    2  C   UNL     1       4.387  -0.615  -2.359  1.00  0.00     0.235 C 
HETATM    3  N   UNL     1       4.996  -0.491  -1.126  1.00  0.00    -0.360 N 
HETATM    4  H   UNL     1       5.935  -0.110  -1.100  1.00  0.00     0.162 HD
ENDROOT
BRANCH   2   5
HETATM    5  C   UNL     1       5.041   0.222  -3.463  1.00  0.00     0.235 C 
BRANCH   5   6
HETATM    6  N   UNL     1       5.402  -0.579  -4.629  1.00  0.00    -0.301 N 
HETATM    7  C   UNL     1       4.517  -0.702  -5.681  1.00  0.00     0.102 A 
HETATM    8  C   UNL     1       4.829  -1.388  -6.783  1.00  0.00     0.092 A 
HETATM    9  C   UNL     1       6.150  -2.033  -6.874  1.00  0.00     0.250 A 
HETATM   10  O   UNL     1       6.491  -2.645  -7.878  1.00  0.00    -0.268 OA
HETATM   11  N   UNL     1       6.950  -1.893  -5.776  1.00  0.00    -0.275 N 
HETATM   12  C   UNL     1       6.644  -1.197  -4.636  1.00  0.00     0.329 A 
HETATM   13  H   UNL     1       7.858  -2.333  -5.814  1.00  0.00     0.173 HD
HETATM   14  O   UNL     1       7.442  -1.128  -3.702  1.00  0.00    -0.246 OA
ENDBRANCH   5   6
ENDBRANCH   2   5
BRANCH   3  15
HETATM   15  C   UNL     1       4.528  -1.206   0.048  1.00  0.00     0.125 C 
BRANCH  15  16
HETATM   16  C   UNL     1       5.092  -2.620   0.153  1.00  0.00     0.046 C 
BRANCH  16  17
HETATM   17  C   UNL     1       6.614  -2.599   0.219  1.00  0.00     0.169 C 
BRANCH  17  18
HETATM   18  O   UNL     1       7.106  -3.915   0.448  1.00  0.00    -0.386 OA
BRANCH  18  19
HETATM   19  C   UNL     1       8.540  -3.991   0.422  1.00  0.00     0.121 C 
HETATM   20  C   UNL     1       8.927  -5.474   0.496  1.00  0.00     0.032 C 
HETATM   21  C   UNL     1       8.551  -6.098   1.841  1.00  0.00     0.002 C 
HETATM   22  C   UNL     1       9.110  -5.301   3.018  1.00  0.00     0.000 C 
HETATM   23  C   UNL     1       8.736  -3.825   2.934  1.00  0.00     0.002 C 
HETATM   24  C   UNL     1       9.177  -3.234   1.596  1.00  0.00     0.032 C 
ENDBRANCH  18  19
ENDBRANCH  17  18
ENDBRANCH  16  17
ENDBRANCH  15  16
ENDBRANCH   3  15
TORSDOF 7
