REMARK  7 active torsions:
REMARK  status: ('A' for Active; 'I' for Inactive)
REMARK    1  A    between atoms: N_5  and  C_6 
REMARK    2  A    between atoms: C_6  and  C_7 
REMARK    3  A    between atoms: C_7  and  O_8 
REMARK    4  A    between atoms: C_7  and  C_9 
REMARK    5  A    between atoms: C_9  and  O_10 
REMARK    6  A    between atoms: O_10  and  C_11 
REMARK    7  A    between atoms: C_11  and  C_12 
ROOT
HETATM    1  C   UNL     1       5.283   3.076   0.083  1.00  0.00     0.160 C 
ENDROOT
BRANCH   1   2
HETATM    2  C   UNL     1       5.659   1.586  -0.029  1.00  0.00     0.168 C 
BRANCH   2   3
HETATM    3  N   UNL     1       4.516   0.706  -0.026  1.00  0.00    -0.295 N 
HETATM    4  C   UNL     1       3.983   0.079   1.118  1.00  0.00     0.329 A 
HETATM    5  N   UNL     1       2.922  -0.731   0.667  1.00  0.00    -0.302 N 
HETATM    6  O   UNL     1       4.386   0.210   2.264  1.00  0.00    -0.246 OA
HETATM    7  C   UNL     1       2.123  -1.597   1.483  1.00  0.00     0.161 C 
HETATM    8  C   UNL     1       2.796  -0.588  -0.721  1.00  0.00     0.065 A 
HETATM    9  C   UNL     1       3.779   0.309  -1.152  1.00  0.00     0.066 A 
HETATM   10  C   UNL     1       1.915  -1.178  -1.604  1.00  0.00     0.032 A 
HETATM   11  C   UNL     1       3.916   0.655  -2.477  1.00  0.00     0.032 A 
HETATM   12  C   UNL     1       3.027   0.070  -3.387  1.00  0.00     0.002 A 
HETATM   13  C   UNL     1       2.038  -0.838  -2.955  1.00  0.00     0.002 A 
ENDBRANCH   2   3
ENDBRANCH   1   2
BRANCH   1  14
HETATM   14  O   UNL     1       4.654   3.387   1.331  1.00  0.00    -0.392 OA
HETATM   15  H   UNL     1       5.017   2.798   2.018  1.00  0.00     0.210 HD
ENDBRANCH   1  14
BRANCH   1  16
HETATM   16  C   UNL     1       6.531   3.954  -0.065  1.00  0.00     0.201 C 
BRANCH  16  17
HETATM   17  O   UNL     1       7.138   3.705  -1.329  1.00  0.00    -0.384 OA
BRANCH  17  18
HETATM   18  C   UNL     1       8.322   4.479  -1.519  1.00  0.00     0.209 C 
BRANCH  18  19
HETATM   19  C   UNL     1       8.928   4.154  -2.857  1.00  0.00     0.004 A 
HETATM   20  C   UNL     1       8.791   2.889  -3.450  1.00  0.00     0.012 A 
HETATM   21  C   UNL     1       9.397   2.610  -4.678  1.00  0.00     0.001 A 
HETATM   22  C   UNL     1      10.157   3.585  -5.322  1.00  0.00     0.003 A 
HETATM   23  C   UNL     1      10.313   4.840  -4.736  1.00  0.00     0.043 A 
HETATM   24  C   UNL     1       9.705   5.111  -3.513  1.00  0.00     0.124 A 
HETATM   25  F   UNL     1       9.881   6.320  -2.960  1.00  0.00    -0.205 F 
ENDBRANCH  18  19
ENDBRANCH  17  18
ENDBRANCH  16  17
ENDBRANCH   1  16
TORSDOF 7
