REMARK  10 active torsions:
REMARK  status: ('A' for Active; 'I' for Inactive)
REMARK    1  A    between atoms: N_2  and  C_13 
REMARK    2  A    between atoms: C_6  and  N_7 
REMARK    3  A    between atoms: C_13  and  C_14 
REMARK    4  A    between atoms: C_14  and  C_18 
REMARK    5  A    between atoms: C_14  and  O_22 
REMARK    6  A    between atoms: C_21  and  O_23 
REMARK    7  A    between atoms: O_23  and  C_27 
REMARK    8  A    between atoms: O_24  and  C_28 
REMARK    9  A    between atoms: O_24  and  C_29 
REMARK   10  A    between atoms: C_27  and  C_28 
ROOT
HETATM    1  C   UNL     1       0.410  -0.781  -0.202  1.00  0.00     0.122 A 
HETATM    2  N   UNL     1       1.547   1.079  -0.359  1.00  0.00    -0.325 N 
HETATM    3  C   UNL     1       0.267   0.592  -0.345  1.00  0.00     0.140 A 
HETATM    4  N   UNL     1       1.747  -1.128  -0.182  1.00  0.00    -0.346 N 
ATOM      5  HN  UNL     1       2.143  -2.065  -0.108  1.00  0.00     0.167 HD
HETATM    6  C   UNL     1      -0.770  -1.555  -0.056  1.00  0.00     0.135 A 
HETATM    7  C   UNL     1       2.397   0.006  -0.278  1.00  0.00     0.185 A 
HETATM    8  N   UNL     1      -0.882   1.288  -0.400  1.00  0.00    -0.336 N 
ATOM      9  HN  UNL     1      -0.943   2.300  -0.510  1.00  0.00     0.168 HD
HETATM   10  N   UNL     1      -1.955  -0.876  -0.106  1.00  0.00    -0.337 N 
ATOM     11  HN  UNL     1      -2.839  -1.374  -0.006  1.00  0.00     0.168 HD
HETATM   12  C   UNL     1      -1.942   0.463  -0.289  1.00  0.00     0.183 A 
ENDROOT
BRANCH   6  13
HETATM   13  N   UNL     1      -0.783  -2.926   0.122  1.00  0.00    -0.363 N 
HETATM   14  C   UNL     1      -1.883  -3.524   0.879  1.00  0.00     0.156 C 
HETATM   15  C   UNL     1      -1.388  -4.950   1.229  1.00  0.00     0.141 C 
HETATM   16  C   UNL     1      -0.015  -5.062   0.560  1.00  0.00     0.053 C 
HETATM   17  C   UNL     1       0.454  -3.628   0.415  1.00  0.00     0.127 C 
BRANCH  15  18
HETATM   18  O   UNL     1      -2.295  -5.939   0.731  1.00  0.00    -0.382 OA
BRANCH  18  19
HETATM   19  C   UNL     1      -1.891  -7.269   1.047  1.00  0.00     0.194 C 
BRANCH  19  20
HETATM   20  C   UNL     1      -2.877  -8.262   0.446  1.00  0.00     0.193 C 
BRANCH  20  21
HETATM   21  O   UNL     1      -2.433  -9.582   0.758  1.00  0.00    -0.389 OA
BRANCH  21  22
HETATM   22  C   UNL     1      -3.297 -10.574   0.213  1.00  0.00     0.163 C 
HETATM   23  C   UNL     1      -2.744 -11.933   0.591  1.00  0.00     0.033 C 
ENDBRANCH  21  22
ENDBRANCH  20  21
ENDBRANCH  19  20
ENDBRANCH  18  19
ENDBRANCH  15  18
ENDBRANCH   6  13
BRANCH   2  24
HETATM   24  C   UNL     1       1.951   2.470  -0.229  1.00  0.00     0.165 C 
BRANCH  24  25
HETATM   25  C   UNL     1       2.744   3.022  -1.423  1.00  0.00     0.165 C 
BRANCH  25  26
HETATM   26  C   UNL     1       3.205   4.477  -1.223  1.00  0.00     0.151 C 
HETATM   27  O   UNL     1       4.038   4.569  -0.045  1.00  0.00    -0.383 OA
HETATM   28  C   UNL     1       3.915   5.904   0.479  1.00  0.00     0.168 C 
HETATM   29  C   UNL     1       2.942   6.651  -0.415  1.00  0.00     0.029 C 
HETATM   30  C   UNL     1       2.137   5.534  -1.040  1.00  0.00     0.036 C 
ENDBRANCH  25  26
BRANCH  25  31
HETATM   31  O   UNL     1       3.936   2.239  -1.625  1.00  0.00    -0.391 OA
HETATM   32  H   UNL     1       4.643   2.662  -1.097  1.00  0.00     0.210 HD
ENDBRANCH  25  31
ENDBRANCH  24  25
ENDBRANCH   2  24
TORSDOF 10
