REMARK  4 active torsions:
REMARK  status: ('A' for Active; 'I' for Inactive)
REMARK    1  A    between atoms: C_5  and  N_9 
REMARK    2  A    between atoms: N_9  and  C_10 
REMARK    3  A    between atoms: C_10  and  C_11 
REMARK    4  A    between atoms: C_11  and  C_12 
ROOT
HETATM    1  N   UNL     1       4.557  -0.657  -2.819  1.00  0.00     0.088 N 
HETATM    2  H   UNL     1       4.976  -0.349  -1.941  1.00  0.00     0.316 HD
ENDROOT
BRANCH   1   3
HETATM    3  C   UNL     1       3.089  -0.675  -2.693  1.00  0.00     0.220 C 
HETATM    4  C   UNL     1       2.598   0.731  -2.304  1.00  0.00     0.036 C 
HETATM    5  C   UNL     1       2.929   1.105  -0.858  1.00  0.00     0.007 C 
HETATM    6  C   UNL     1       2.440   0.056   0.160  1.00  0.00    -0.015 C 
HETATM    7  C   UNL     1       0.917   0.137   0.324  1.00  0.00     0.010 C 
HETATM    8  C   UNL     1       2.948  -1.354  -0.233  1.00  0.00    -0.013 C 
HETATM    9  C   UNL     1       2.560  -1.705  -1.679  1.00  0.00     0.040 C 
HETATM   10  C   UNL     1       2.486  -2.452   0.724  1.00  0.00     0.010 C 
ENDBRANCH   1   3
BRANCH   1  11
HETATM   11  C   UNL     1       5.163  -1.937  -3.197  1.00  0.00     0.275 C 
BRANCH  11  12
HETATM   12  C   UNL     1       4.702  -2.463  -4.563  1.00  0.00     0.073 C 
BRANCH  12  13
HETATM   13  C   UNL     1       5.296  -3.792  -4.868  1.00  0.00    -0.001 A 
HETATM   14  C   UNL     1       6.513  -4.088  -5.534  1.00  0.00     0.037 A 
HETATM   15  C   UNL     1       7.520  -3.154  -6.090  1.00  0.00     0.071 C 
HETATM   16  N   UNL     1       6.716  -5.408  -5.614  1.00  0.00    -0.265 N 
HETATM   17  O   UNL     1       5.628  -5.996  -4.999  1.00  0.00    -0.242 OA
ATOM     18  HN  UNL     1       7.511  -5.883  -6.041  1.00  0.00     0.194 HD
HETATM   19  C   UNL     1       4.784  -5.032  -4.551  1.00  0.00     0.081 A 
HETATM   20  C   UNL     1       3.570  -5.488  -3.849  1.00  0.00     0.079 C 
ENDBRANCH  12  13
ENDBRANCH  11  12
ENDBRANCH   1  11
TORSDOF 4
