REMARK  4 active torsions:
REMARK  status: ('A' for Active; 'I' for Inactive)
REMARK    1  A    between atoms: C_4  and  N_5 
REMARK       I    between atoms: N_5  and  C_6 
REMARK       I    between atoms: C_6  and  N_8 
REMARK    2  A    between atoms: N_8  and  C_9 
REMARK    3  A    between atoms: C_9  and  C_10 
REMARK    4  A    between atoms: C_10  and  N_11 
ROOT
HETATM    1  N   UNL     1       5.683   1.671  -0.099  1.00  0.00    -0.293 N 
HETATM    2  C   UNL     1       5.578   3.089  -0.092  1.00  0.00     0.321 C 
HETATM    3  O   UNL     1       4.507   3.671  -0.080  1.00  0.00    -0.247 OA
HETATM    4  N   UNL     1       6.798   3.699  -0.081  1.00  0.00    -0.341 N 
HETATM    5  H   UNL     1       6.599   1.251  -0.066  1.00  0.00     0.172 HD
HETATM    6  H   UNL     1       7.656   3.191  -0.231  1.00  0.00     0.164 HD
ENDROOT
BRANCH   1   7
HETATM    7  C   UNL     1       4.563   0.838  -0.127  1.00  0.00     0.127 A 
HETATM    8  C   UNL     1       3.239   1.213  -0.210  1.00  0.00     0.076 A 
HETATM    9  C   UNL     1       2.489   0.019  -0.202  1.00  0.00     0.025 A 
HETATM   10  C   UNL     1       1.014  -0.115  -0.271  1.00  0.00     0.070 C 
HETATM   11  N   UNL     1       3.283  -1.052  -0.122  1.00  0.00    -0.302 N 
HETATM   12  N   UNL     1       4.530  -0.539  -0.082  1.00  0.00    -0.281 N 
ATOM     13  HN  UNL     1       3.009  -2.034  -0.097  1.00  0.00     0.186 HD
HETATM   14  C   UNL     1       5.631  -1.465   0.009  1.00  0.00     0.179 C 
ENDBRANCH   1   7
BRANCH   4  15
HETATM   15  C   UNL     1       6.793   5.151  -0.163  1.00  0.00     0.144 C 
BRANCH  15  16
HETATM   16  C   UNL     1       8.165   5.806  -0.033  1.00  0.00     0.145 C 
BRANCH  16  17
HETATM   17  N   UNL     1       8.112   7.271  -0.076  1.00  0.00    -0.351 N 
HETATM   18  C   UNL     1       7.395   7.937   1.015  1.00  0.00     0.126 C 
HETATM   19  C   UNL     1       8.086   9.178   1.551  1.00  0.00     0.020 C 
HETATM   20  C   UNL     1       7.742  10.449   0.780  1.00  0.00     0.002 C 
HETATM   21  C   UNL     1       7.616  10.282  -0.732  1.00  0.00     0.009 C 
HETATM   22  C   UNL     1       8.661   9.359  -1.329  1.00  0.00     0.103 C 
HETATM   23  C   UNL     1       8.315   7.878  -1.311  1.00  0.00     0.219 C 
HETATM   24  O   UNL     1       8.348   7.221  -2.353  1.00  0.00    -0.273 OA
ENDBRANCH  16  17
ENDBRANCH  15  16
ENDBRANCH   4  15
TORSDOF 4
