REMARK  8 active torsions:
REMARK  status: ('A' for Active; 'I' for Inactive)
REMARK    1  A    between atoms: O_1  and  C_2 
REMARK    2  A    between atoms: C_2  and  C_3 
REMARK    3  A    between atoms: C_3  and  N_4 
REMARK    4  A    between atoms: N_4  and  C_5 
REMARK    5  A    between atoms: N_14  and  C_15 
REMARK    6  A    between atoms: C_15  and  C_16 
REMARK    7  A    between atoms: C_16  and  O_17 
REMARK    8  A    between atoms: C_16  and  C_18 
ROOT
HETATM    1  C   UNL     1       4.989   1.204  -2.594  1.00  0.00     0.160 A 
HETATM    2  N   UNL     1       4.898   2.480  -2.877  1.00  0.00    -0.331 N 
ATOM      3  HN  UNL     1       4.371   3.189  -2.367  1.00  0.00     0.168 HD
HETATM    4  C   UNL     1       5.659   2.662  -4.002  1.00  0.00     0.061 A 
HETATM    5  C   UNL     1       5.927   3.845  -4.709  1.00  0.00     0.032 A 
HETATM    6  C   UNL     1       6.707   3.776  -5.869  1.00  0.00     0.002 A 
HETATM    7  C   UNL     1       7.213   2.554  -6.314  1.00  0.00     0.002 A 
HETATM    8  C   UNL     1       6.982   1.368  -5.605  1.00  0.00     0.032 A 
HETATM    9  C   UNL     1       6.204   1.458  -4.444  1.00  0.00     0.063 A 
HETATM   10  N   UNL     1       5.783   0.544  -3.504  1.00  0.00    -0.319 N 
ENDROOT
BRANCH  10  11
HETATM   11  C   UNL     1       6.130  -0.867  -3.447  1.00  0.00     0.168 C 
BRANCH  11  12
HETATM   12  C   UNL     1       5.072  -1.777  -4.097  1.00  0.00     0.172 C 
BRANCH  12  13
HETATM   13  O   UNL     1       5.005  -1.540  -5.512  1.00  0.00    -0.389 OA
HETATM   14  H   UNL     1       5.912  -1.497  -5.856  1.00  0.00     0.210 HD
ENDBRANCH  12  13
BRANCH  12  15
HETATM   15  C   UNL     1       5.237  -3.279  -3.925  1.00  0.00     0.013 A 
HETATM   16  C   UNL     1       4.320  -4.135  -4.566  1.00  0.00     0.055 A 
HETATM   17  C   UNL     1       4.410  -5.519  -4.425  1.00  0.00     0.117 A 
HETATM   18  F   UNL     1       3.530  -6.307  -5.055  1.00  0.00    -0.206 F 
HETATM   19  C   UNL     1       5.400  -6.092  -3.640  1.00  0.00     0.045 A 
HETATM   20  C   UNL     1       6.317  -5.266  -2.996  1.00  0.00     0.046 A 
HETATM   21  C   UNL     1       6.234  -3.879  -3.144  1.00  0.00     0.125 A 
HETATM   22  F   UNL     1       7.156  -3.139  -2.517  1.00  0.00    -0.205 F 
ENDBRANCH  12  15
ENDBRANCH  11  12
ENDBRANCH  10  11
BRANCH   1  23
HETATM   23  N   UNL     1       4.402   0.535  -1.571  1.00  0.00    -0.262 NA
HETATM   24  H   UNL     1       5.043   0.347  -0.794  1.00  0.00     0.130 HD
BRANCH  23  25
HETATM   25  C   UNL     1       3.218   1.188  -0.990  1.00  0.00     0.121 C 
BRANCH  25  26
HETATM   26  C   UNL     1       2.675   0.324   0.150  1.00  0.00     0.178 C 
BRANCH  26  27
HETATM   27  O   UNL     1       3.651   0.220   1.190  1.00  0.00    -0.400 OA
HETATM   28  H   UNL     1       3.243  -0.296   1.906  1.00  0.00     0.209 HD
ENDBRANCH  26  27
ENDBRANCH  25  26
ENDBRANCH  23  25
ENDBRANCH   1  23
TORSDOF 8
