REMARK  4 active torsions:
REMARK  status: ('A' for Active; 'I' for Inactive)
REMARK    1  A    between atoms: C_4  and  C_5 
REMARK    2  A    between atoms: C_5  and  C_6 
REMARK       I    between atoms: C_6  and  N_8 
REMARK    3  A    between atoms: N_8  and  C_9 
REMARK    4  A    between atoms: C_9  and  C_10 
ROOT
HETATM    1  C   UNL     1       5.177   3.092   0.489  1.00  0.00     0.223 C 
HETATM    2  O   UNL     1       4.059   3.486   0.160  1.00  0.00    -0.273 OA
HETATM    3  N   UNL     1       6.298   3.898   0.454  1.00  0.00    -0.360 N 
HETATM    4  H   UNL     1       7.154   3.545   0.864  1.00  0.00     0.162 HD
ENDROOT
BRANCH   1   5
HETATM    5  C   UNL     1       5.430   1.672   0.954  1.00  0.00     0.161 C 
BRANCH   5   6
HETATM    6  C   UNL     1       5.126   1.505   2.401  1.00  0.00     0.036 A 
HETATM    7  C   UNL     1       3.888   1.697   3.060  1.00  0.00     0.053 A 
HETATM    8  C   UNL     1       4.115   1.345   4.371  1.00  0.00     0.024 A 
HETATM    9  C   UNL     1       3.225   1.304   5.552  1.00  0.00     0.070 C 
HETATM   10  N   UNL     1       5.431   0.986   4.430  1.00  0.00    -0.305 N 
HETATM   11  N   UNL     1       6.071   1.077   3.251  1.00  0.00    -0.304 N 
HETATM   12  H   UNL     1       5.955   0.657   5.236  1.00  0.00     0.186 HD
ATOM     13  HN  UNL     1       7.049   0.869   3.050  1.00  0.00     0.186 HD
ENDBRANCH   5   6
ENDBRANCH   1   5
BRANCH   3  14
HETATM   14  C   UNL     1       6.202   5.288   0.049  1.00  0.00     0.131 C 
BRANCH  14  15
HETATM   15  C   UNL     1       7.520   6.115   0.183  1.00  0.00    -0.028 C 
HETATM   16  C   UNL     1       7.920   6.155   1.675  1.00  0.00     0.016 C 
HETATM   17  C   UNL     1       7.192   7.546  -0.339  1.00  0.00     0.011 C 
HETATM   18  C   UNL     1       8.247   8.628  -0.111  1.00  0.00     0.001 C 
HETATM   19  C   UNL     1       9.388   8.690  -1.122  1.00  0.00     0.000 C 
HETATM   20  C   UNL     1       9.822   7.386  -1.777  1.00  0.00     0.000 C 
HETATM   21  C   UNL     1       9.942   6.201  -0.827  1.00  0.00     0.001 C 
HETATM   22  C   UNL     1       8.629   5.435  -0.656  1.00  0.00     0.011 C 
ENDBRANCH  14  15
ENDBRANCH   3  14
TORSDOF 4
