REMARK  5 active torsions:
REMARK  status: ('A' for Active; 'I' for Inactive)
REMARK    1  A    between atoms: C_2  and  C_4 
REMARK    2  A    between atoms: C_4  and  C_5 
REMARK    3  A    between atoms: C_4  and  N_16 
REMARK    4  A    between atoms: C_5  and  N_6 
REMARK       I    between atoms: N_6  and  C_7 
REMARK       I    between atoms: C_7  and  N_9 
REMARK    5  A    between atoms: N_9  and  C_10 
ROOT
HETATM    1  N   UNL     1       2.857  -1.565   3.446  1.00  0.00    -0.341 N 
HETATM    2  C   UNL     1       2.406  -2.709   4.071  1.00  0.00     0.320 C 
HETATM    3  O   UNL     1       1.546  -3.434   3.583  1.00  0.00    -0.247 OA
HETATM    4  N   UNL     1       3.066  -2.918   5.262  1.00  0.00    -0.306 N 
HETATM    5  H   UNL     1       3.127  -0.807   4.051  1.00  0.00     0.164 HD
HETATM    6  H   UNL     1       3.882  -2.359   5.458  1.00  0.00     0.171 HD
ENDROOT
BRANCH   1   7
HETATM    7  C   UNL     1       2.387  -1.242   2.109  1.00  0.00     0.160 C 
BRANCH   7   8
HETATM    8  C   UNL     1       3.059  -0.003   1.421  1.00  0.00     0.244 C 
BRANCH   8   9
HETATM    9  C   UNL     1       2.284   0.306   0.073  1.00  0.00     0.012 C 
HETATM   10  C   UNL     1       2.380  -0.811  -0.975  1.00  0.00     0.012 C 
HETATM   11  C   UNL     1       0.801   0.654   0.282  1.00  0.00     0.012 C 
ENDBRANCH   8   9
BRANCH   8  12
HETATM   12  N   UNL     1       4.542  -0.142   1.201  1.00  0.00     0.099 N 
HETATM   13  C   UNL     1       5.359  -0.397   2.417  1.00  0.00     0.299 C 
HETATM   14  C   UNL     1       5.439   0.809   3.371  1.00  0.00     0.198 C 
HETATM   15  O   UNL     1       6.007   1.947   2.719  1.00  0.00    -0.388 OA
HETATM   16  C   UNL     1       5.287   2.266   1.522  1.00  0.00     0.198 C 
HETATM   17  C   UNL     1       5.178   1.051   0.578  1.00  0.00     0.299 C 
ENDBRANCH   8  12
ENDBRANCH   7   8
ENDBRANCH   1   7
BRANCH   4  18
HETATM   18  C   UNL     1       2.807  -3.982   6.102  1.00  0.00     0.070 A 
HETATM   19  C   UNL     1       1.822  -4.991   6.051  1.00  0.00     0.138 A 
HETATM   20  N   UNL     1       1.913  -5.846   7.074  1.00  0.00    -0.310 N 
HETATM   21  N   UNL     1       2.962  -5.388   7.773  1.00  0.00    -0.310 N 
ATOM     22  HN  UNL     1       1.325  -6.655   7.275  1.00  0.00     0.186 HD
HETATM   23  C   UNL     1       3.534  -4.270   7.233  1.00  0.00     0.138 A 
HETATM   24  H   UNL     1       3.227  -5.888   8.612  1.00  0.00     0.186 HD
ENDBRANCH   4  18
TORSDOF 5
