REMARK  4 active torsions:
REMARK  status: ('A' for Active; 'I' for Inactive)
REMARK    1  A    between atoms: N_7  and  C_8 
REMARK    2  A    between atoms: C_8  and  C_9 
REMARK    3  A    between atoms: C_9  and  N_10 
REMARK       I    between atoms: N_10  and  C_11 
REMARK       I    between atoms: C_11  and  N_13 
REMARK    4  A    between atoms: N_13  and  C_14 
ROOT
HETATM    1  N   UNL     1       2.482  -0.968   2.667  1.00  0.00    -0.341 N 
HETATM    2  C   UNL     1       2.858  -0.742   3.979  1.00  0.00     0.321 C 
HETATM    3  O   UNL     1       3.538  -1.554   4.595  1.00  0.00    -0.247 OA
HETATM    4  N   UNL     1       2.343   0.429   4.480  1.00  0.00    -0.293 N 
HETATM    5  H   UNL     1       2.485  -0.158   2.061  1.00  0.00     0.164 HD
HETATM    6  H   UNL     1       1.529   0.807   4.024  1.00  0.00     0.172 HD
ENDROOT
BRANCH   1   7
HETATM    7  C   UNL     1       2.985  -2.189   2.056  1.00  0.00     0.154 C 
BRANCH   7   8
HETATM    8  C   UNL     1       2.588  -2.369   0.583  1.00  0.00     0.292 C 
BRANCH   8   9
HETATM    9  N   UNL     1       3.026  -1.286  -0.325  1.00  0.00     0.094 N 
HETATM   10  C   UNL     1       2.427  -1.436  -1.676  1.00  0.00     0.219 C 
HETATM   11  C   UNL     1       2.716  -2.769  -2.390  1.00  0.00     0.043 C 
HETATM   12  C   UNL     1       2.836  -0.248  -2.569  1.00  0.00     0.035 C 
HETATM   13  C   UNL     1       4.348  -0.077  -2.651  1.00  0.00     0.004 C 
HETATM   14  C   UNL     1       4.940   0.001  -1.253  1.00  0.00     0.030 C 
HETATM   15  C   UNL     1       4.494  -1.171  -0.379  1.00  0.00     0.273 C 
ENDBRANCH   8   9
ENDBRANCH   7   8
ENDBRANCH   1   7
BRANCH   4  16
HETATM   16  C   UNL     1       2.653   0.896   5.748  1.00  0.00     0.132 A 
HETATM   17  C   UNL     1       1.906   1.871   6.458  1.00  0.00     0.084 A 
HETATM   18  C   UNL     1       2.561   2.005   7.660  1.00  0.00     0.076 A 
HETATM   19  C   UNL     1       2.349   2.793   8.886  1.00  0.00     0.079 C 
HETATM   20  O   UNL     1       3.648   1.194   7.661  1.00  0.00    -0.241 OA
HETATM   21  N   UNL     1       3.710   0.510   6.470  1.00  0.00    -0.245 N 
ATOM     22  HN  UNL     1       4.425  -0.162   6.191  1.00  0.00     0.196 HD
ENDBRANCH   4  16
TORSDOF 4
