REMARK  6 active torsions:
REMARK  status: ('A' for Active; 'I' for Inactive)
REMARK    1  A    between atoms: C_2  and  C_3 
REMARK    2  A    between atoms: C_3  and  C_4 
REMARK    3  A    between atoms: C_3  and  N_6 
REMARK       I    between atoms: N_6  and  C_7 
REMARK    4  A    between atoms: C_7  and  C_9 
REMARK    5  A    between atoms: C_9  and  N_10 
REMARK    6  A    between atoms: C_15  and  C_16 
ROOT
HETATM    1  N   UNL     1       7.239   1.326  -3.977  1.00  0.00    -0.256 N 
HETATM    2  N   UNL     1       7.263   2.630  -4.310  1.00  0.00    -0.005 NA
HETATM    3  N   UNL     1       7.704   2.663  -5.555  1.00  0.00    -0.007 NA
HETATM    4  N   UNL     1       7.954   1.400  -6.018  1.00  0.00    -0.273 N 
ATOM      5  HN  UNL     1       8.294   1.150  -6.946  1.00  0.00     0.185 HD
HETATM    6  C   UNL     1       7.671   0.568  -5.035  1.00  0.00     0.114 A 
ENDROOT
BRANCH   1   7
HETATM    7  C   UNL     1       6.669   0.928  -2.715  1.00  0.00     0.250 C 
BRANCH   7   8
HETATM    8  C   UNL     1       5.174   0.712  -2.808  1.00  0.00     0.237 C 
HETATM    9  N   UNL     1       4.484   1.558  -3.650  1.00  0.00    -0.355 N 
HETATM   10  H   UNL     1       5.004   2.212  -4.234  1.00  0.00     0.162 HD
HETATM   11  O   UNL     1       4.616  -0.138  -2.114  1.00  0.00    -0.272 OA
BRANCH   9  12
HETATM   12  C   UNL     1       3.049   1.450  -3.891  1.00  0.00     0.083 C 
BRANCH  12  13
HETATM   13  C   UNL     1       2.515   2.816  -4.356  1.00  0.00     0.021 C 
HETATM   14  C   UNL     1       1.012   2.844  -4.583  1.00  0.00     0.007 C 
ENDBRANCH  12  13
BRANCH  12  15
HETATM   15  C   UNL     1       2.727   0.279  -4.840  1.00  0.00     0.021 C 
HETATM   16  C   UNL     1       3.356   0.381  -6.223  1.00  0.00     0.007 C 
ENDBRANCH  12  15
ENDBRANCH   9  12
ENDBRANCH   7   8
ENDBRANCH   1   7
BRANCH   6  17
HETATM   17  C   UNL     1       7.818  -0.925  -5.031  1.00  0.00     0.056 C 
HETATM   18  C   UNL     1       9.201  -1.331  -4.502  1.00  0.00     0.012 C 
HETATM   19  C   UNL     1      10.321  -1.016  -5.494  1.00  0.00     0.001 C 
HETATM   20  C   UNL     1      10.068  -1.669  -6.848  1.00  0.00     0.000 C 
HETATM   21  C   UNL     1       8.697  -1.319  -7.419  1.00  0.00     0.001 C 
HETATM   22  C   UNL     1       7.565  -1.550  -6.414  1.00  0.00     0.012 C 
ENDBRANCH   6  17
TORSDOF 6
