REMARK  4 active torsions:
REMARK  status: ('A' for Active; 'I' for Inactive)
REMARK    1  A    between atoms: C_2  and  C_5 
REMARK       I    between atoms: C_5  and  N_7 
REMARK    2  A    between atoms: C_10  and  C_11 
REMARK    3  A    between atoms: C_11  and  N_12 
REMARK       I    between atoms: N_12  and  C_13 
REMARK       I    between atoms: C_13  and  N_15 
REMARK    4  A    between atoms: N_15  and  C_16 
ROOT
HETATM    1  C   UNL     1       7.897  -1.987  -1.343  1.00  0.00     0.129 C 
ENDROOT
BRANCH   1   2
HETATM    2  C   UNL     1       6.796  -1.964  -2.414  1.00  0.00     0.006 C 
HETATM    3  C   UNL     1       6.080  -0.612  -2.544  1.00  0.00     0.026 C 
HETATM    4  C   UNL     1       5.173  -0.294  -1.358  1.00  0.00     0.126 C 
HETATM    5  N   UNL     1       4.224  -1.381  -1.111  1.00  0.00    -0.344 N 
HETATM    6  C   UNL     1       2.883  -1.225  -0.728  1.00  0.00     0.327 C 
HETATM    7  C   UNL     1       4.830  -2.707  -0.962  1.00  0.00     0.126 C 
HETATM    8  O   UNL     1       2.208  -2.234  -0.461  1.00  0.00    -0.263 OA
HETATM    9  C   UNL     1       5.744  -3.053  -2.140  1.00  0.00     0.026 C 
BRANCH   6  10
HETATM   10  C   UNL     1       2.193   0.168  -0.685  1.00  0.00     0.472 C 
HETATM   11  F   UNL     1       3.018   1.249  -0.663  1.00  0.00    -0.162 F 
HETATM   12  F   UNL     1       1.407   0.302   0.425  1.00  0.00    -0.162 F 
HETATM   13  F   UNL     1       1.364   0.349  -1.754  1.00  0.00    -0.162 F 
ENDBRANCH   6  10
ENDBRANCH   1   2
BRANCH   1  14
HETATM   14  N   UNL     1       8.874  -0.926  -1.521  1.00  0.00    -0.342 N 
HETATM   15  C   UNL     1       8.961   0.083  -0.589  1.00  0.00     0.320 C 
HETATM   16  O   UNL     1       8.199   0.152   0.368  1.00  0.00    -0.247 OA
HETATM   17  N   UNL     1       9.955   0.986  -0.884  1.00  0.00    -0.308 N 
HETATM   18  H   UNL     1      10.231   1.040  -1.858  1.00  0.00     0.170 HD
HETATM   19  H   UNL     1       9.708  -1.139  -2.049  1.00  0.00     0.164 HD
BRANCH  17  20
HETATM   20  C   UNL     1      10.344   2.047  -0.035  1.00  0.00     0.051 A 
HETATM   21  C   UNL     1      10.077   2.068   1.333  1.00  0.00     0.032 A 
HETATM   22  C   UNL     1      10.461   3.161   2.106  1.00  0.00     0.019 A 
HETATM   23  C   UNL     1      11.124   4.203   1.485  1.00  0.00     0.088 A 
HETATM   24  N   UNL     1      11.434   4.213   0.169  1.00  0.00    -0.373 N 
HETATM   25  C   UNL     1      11.041   3.135  -0.555  1.00  0.00     0.117 A 
ATOM     26  HN  UNL     1      11.937   4.991  -0.258  1.00  0.00     0.164 HD
ENDBRANCH  17  20
ENDBRANCH   1  14
TORSDOF 4
