REMARK  5 active torsions:
REMARK  status: ('A' for Active; 'I' for Inactive)
REMARK       I    between atoms: C_2  and  N_3 
REMARK       I    between atoms: C_2  and  N_12 
REMARK    1  A    between atoms: N_3  and  C_4 
REMARK    2  A    between atoms: C_4  and  C_5 
REMARK    3  A    between atoms: C_5  and  N_6 
REMARK    4  A    between atoms: N_12  and  C_13 
REMARK    5  A    between atoms: C_13  and  C_14 
ROOT
HETATM    1  O   UNL     1       1.006   0.028  -0.209  1.00  0.00    -0.247 OA
HETATM    2  C   UNL     1       2.226   0.036  -0.129  1.00  0.00     0.316 C 
HETATM    3  N   UNL     1       2.914   0.628   0.899  1.00  0.00    -0.342 N 
HETATM    4  N   UNL     1       3.058  -0.581  -1.016  1.00  0.00    -0.341 N 
HETATM    5  H   UNL     1       3.876   0.871   0.709  1.00  0.00     0.164 HD
HETATM    6  H   UNL     1       4.051  -0.619  -0.838  1.00  0.00     0.164 HD
ENDROOT
BRANCH   3   7
HETATM    7  C   UNL     1       2.206   1.405   1.903  1.00  0.00     0.144 C 
BRANCH   7   8
HETATM    8  C   UNL     1       1.301   0.546   2.788  1.00  0.00     0.149 C 
BRANCH   8   9
HETATM    9  N   UNL     1       0.625   1.331   3.798  1.00  0.00    -0.350 N 
HETATM   10  C   UNL     1       1.040   1.533   5.084  1.00  0.00     0.108 A 
HETATM   11  C   UNL     1       0.056   2.308   5.652  1.00  0.00     0.106 A 
HETATM   12  N   UNL     1      -0.937   2.578   4.746  1.00  0.00    -0.361 N 
HETATM   13  C   UNL     1      -0.573   1.967   3.640  1.00  0.00     0.182 A 
ATOM     14  HN  UNL     1      -1.779   3.134   4.898  1.00  0.00     0.166 HD
ENDBRANCH   8   9
ENDBRANCH   7   8
ENDBRANCH   3   7
BRANCH   4  15
HETATM   15  C   UNL     1       2.565  -1.400  -2.110  1.00  0.00     0.156 C 
BRANCH  15  16
HETATM   16  C   UNL     1       3.037  -2.853  -2.001  1.00  0.00     0.139 C 
HETATM   17  C   UNL     1       2.543  -3.615  -0.779  1.00  0.00     0.035 C 
HETATM   18  C   UNL     1       3.704  -4.511  -0.394  1.00  0.00     0.029 C 
HETATM   19  C   UNL     1       4.791  -4.199  -1.400  1.00  0.00     0.168 C 
HETATM   20  O   UNL     1       4.475  -2.908  -1.931  1.00  0.00    -0.384 OA
ENDBRANCH  15  16
ENDBRANCH   4  15
TORSDOF 5
