REMARK  4 active torsions:
REMARK  status: ('A' for Active; 'I' for Inactive)
REMARK       I    between atoms: N_2  and  C_3 
REMARK    1  A    between atoms: C_3  and  C_5 
REMARK    2  A    between atoms: C_5  and  N_7 
REMARK       I    between atoms: N_7  and  C_8 
REMARK    3  A    between atoms: C_8  and  C_10 
REMARK    4  A    between atoms: C_10  and  N_12 
ROOT
HETATM    1  N   UNL     1       5.283  -2.484  -0.387  1.00  0.00    -0.346 N 
HETATM    2  C   UNL     1       6.638  -2.667  -0.537  1.00  0.00     0.242 C 
HETATM    3  O   UNL     1       7.437  -1.735  -0.463  1.00  0.00    -0.271 OA
HETATM    4  H   UNL     1       4.631  -3.259  -0.492  1.00  0.00     0.163 HD
ENDROOT
BRANCH   2   5
HETATM    5  C   UNL     1       7.080  -4.110  -0.738  1.00  0.00     0.197 C 
HETATM    6  C   UNL     1       8.326  -4.196  -1.617  1.00  0.00     0.044 C 
BRANCH   5   7
HETATM    7  N   UNL     1       7.306  -4.723   0.560  1.00  0.00    -0.273 N 
HETATM    8  C   UNL     1       8.167  -4.333   1.540  1.00  0.00     0.202 A 
HETATM    9  N   UNL     1       8.074  -5.157   2.558  1.00  0.00    -0.346 N 
HETATM   10  C   UNL     1       7.128  -6.049   2.146  1.00  0.00     0.198 A 
ATOM     11  HN  UNL     1       8.584  -5.135   3.441  1.00  0.00     0.167 HD
HETATM   12  N   UNL     1       6.626  -5.828   0.928  1.00  0.00    -0.292 N 
ATOM     13  HN  UNL     1       5.919  -6.354   0.414  1.00  0.00     0.188 HD
ENDBRANCH   5   7
ENDBRANCH   2   5
BRANCH   1  14
HETATM   14  C   UNL     1       4.699  -1.174  -0.115  1.00  0.00     0.172 C 
HETATM   15  C   UNL     1       4.731  -0.876   1.380  1.00  0.00     0.042 C 
BRANCH  14  16
HETATM   16  C   UNL     1       3.253  -1.148  -0.651  1.00  0.00     0.239 C 
HETATM   17  N   UNL     1       2.621   0.073  -0.544  1.00  0.00    -0.364 N 
HETATM   18  C   UNL     1       1.274   0.264  -1.017  1.00  0.00     0.149 C 
HETATM   19  H   UNL     1       3.131   0.876  -0.197  1.00  0.00     0.161 HD
HETATM   20  O   UNL     1       2.716  -2.143  -1.137  1.00  0.00    -0.271 OA
ENDBRANCH  14  16
ENDBRANCH   1  14
TORSDOF 4
