REMARK  4 active torsions:
REMARK  status: ('A' for Active; 'I' for Inactive)
REMARK    1  A    between atoms: N_6  and  C_7 
REMARK    2  A    between atoms: C_7  and  C_8 
REMARK    3  A    between atoms: C_8  and  N_9 
REMARK       I    between atoms: N_9  and  C_10 
REMARK       I    between atoms: C_10  and  N_12 
REMARK    4  A    between atoms: N_12  and  C_13 
ROOT
HETATM    1  N   UNL     1       2.997  -4.860  -3.937  1.00  0.00    -0.341 N 
HETATM    2  C   UNL     1       2.240  -5.963  -3.682  1.00  0.00     0.322 C 
HETATM    3  O   UNL     1       1.166  -5.926  -3.088  1.00  0.00    -0.247 OA
HETATM    4  N   UNL     1       2.701  -7.145  -4.179  1.00  0.00    -0.289 N 
HETATM    5  H   UNL     1       3.898  -5.011  -4.381  1.00  0.00     0.164 HD
HETATM    6  H   UNL     1       2.077  -7.933  -4.098  1.00  0.00     0.172 HD
ENDROOT
BRANCH   1   7
HETATM    7  C   UNL     1       2.602  -3.510  -3.610  1.00  0.00     0.154 C 
BRANCH   7   8
HETATM    8  C   UNL     1       3.126  -3.054  -2.237  1.00  0.00     0.292 C 
BRANCH   8   9
HETATM    9  N   UNL     1       2.705  -1.684  -1.881  1.00  0.00     0.090 N 
HETATM   10  C   UNL     1       3.242  -0.676  -2.807  1.00  0.00     0.272 C 
HETATM   11  C   UNL     1       2.755   0.731  -2.458  1.00  0.00     0.031 C 
HETATM   12  C   UNL     1       3.063   1.086  -1.010  1.00  0.00     0.007 C 
HETATM   13  C   UNL     1       2.566   0.000  -0.047  1.00  0.00     0.010 C 
HETATM   14  C   UNL     1       1.038   0.009   0.072  1.00  0.00     0.011 C 
HETATM   15  C   UNL     1       3.089  -1.377  -0.494  1.00  0.00     0.276 C 
ENDBRANCH   8   9
ENDBRANCH   7   8
ENDBRANCH   1   7
BRANCH   4  16
HETATM   16  C   UNL     1       3.914  -7.327  -4.777  1.00  0.00     0.152 A 
HETATM   17  N   UNL     1       4.902  -6.467  -4.864  1.00  0.00    -0.346 N 
HETATM   18  C   UNL     1       5.955  -7.056  -5.532  1.00  0.00     0.097 A 
ATOM     19  HN  UNL     1       4.892  -5.516  -4.496  1.00  0.00     0.167 HD
HETATM   20  C   UNL     1       5.723  -8.336  -5.989  1.00  0.00     0.070 A 
HETATM   21  S   UNL     1       4.158  -8.850  -5.499  1.00  0.00    -0.064 SA
ENDBRANCH   4  16
TORSDOF 4
