REMARK  5 active torsions:
REMARK  status: ('A' for Active; 'I' for Inactive)
REMARK    1  A    between atoms: C_2  and  S_3 
REMARK    2  A    between atoms: S_3  and  C_4 
REMARK    3  A    between atoms: C_8  and  N_9 
REMARK       I    between atoms: N_9  and  C_10 
REMARK       I    between atoms: C_10  and  N_12 
REMARK    4  A    between atoms: N_12  and  C_13 
REMARK    5  A    between atoms: N_17  and  C_19 
ROOT
HETATM    1  N   UNL     1       4.548   2.894   1.105  1.00  0.00    -0.337 N 
HETATM    2  C   UNL     1       3.313   3.118   0.556  1.00  0.00     0.321 C 
HETATM    3  O   UNL     1       2.760   2.304  -0.171  1.00  0.00    -0.247 OA
HETATM    4  N   UNL     1       2.761   4.341   0.868  1.00  0.00    -0.306 N 
HETATM    5  H   UNL     1       4.828   3.494   1.869  1.00  0.00     0.164 HD
HETATM    6  H   UNL     1       3.331   5.058   1.290  1.00  0.00     0.171 HD
ENDROOT
BRANCH   1   7
HETATM    7  C   UNL     1       5.352   1.675   0.904  1.00  0.00     0.100 C 
HETATM    8  C   UNL     1       6.766   1.980   0.360  1.00  0.00     0.070 C 
HETATM    9  C   UNL     1       6.549   2.184  -1.148  1.00  0.00     0.017 C 
HETATM   10  C   UNL     1       5.325   1.331  -1.498  1.00  0.00     0.003 C 
HETATM   11  C   UNL     1       4.890   0.687  -0.180  1.00  0.00     0.026 C 
BRANCH   8  12
HETATM   12  S   UNL     1       7.675   3.372   1.109  1.00  0.00    -0.163 SA
BRANCH  12  13
HETATM   13  C   UNL     1       7.956   2.738   2.796  1.00  0.00     0.070 C 
HETATM   14  C   UNL     1       8.653   1.390   2.850  1.00  0.00     0.016 C 
ENDBRANCH  12  13
ENDBRANCH   8  12
ENDBRANCH   1   7
BRANCH   4  15
HETATM   15  C   UNL     1       1.531   4.706   0.329  1.00  0.00     0.070 A 
HETATM   16  C   UNL     1       0.570   3.915  -0.348  1.00  0.00     0.138 A 
HETATM   17  N   UNL     1      -0.472   4.621  -0.783  1.00  0.00    -0.307 N 
HETATM   18  N   UNL     1      -0.157   5.880  -0.429  1.00  0.00    -0.297 N 
ATOM     19  HN  UNL     1      -1.306   4.288  -1.267  1.00  0.00     0.186 HD
HETATM   20  C   UNL     1       0.995   5.974   0.310  1.00  0.00     0.141 A 
BRANCH  18  21
HETATM   21  C   UNL     1      -1.014   6.963  -0.895  1.00  0.00     0.099 C 
HETATM   22  C   UNL     1      -0.994   7.053  -2.423  1.00  0.00     0.034 C 
HETATM   23  C   UNL     1      -2.439   6.788  -0.372  1.00  0.00     0.034 C 
ENDBRANCH  18  21
ENDBRANCH   4  15
TORSDOF 5
