REMARK  4 active torsions:
REMARK  status: ('A' for Active; 'I' for Inactive)
REMARK    1  A    between atoms: C_1  and  C_2 
REMARK    2  A    between atoms: C_1  and  N_10 
REMARK    3  A    between atoms: C_2  and  C_3 
REMARK    4  A    between atoms: N_10  and  C_11 
ROOT
HETATM    1  C   UNL     1      -1.126  -0.504  -1.381  1.00  0.00     0.010 A 
HETATM    2  C   UNL     1      -1.859  -1.597  -0.927  1.00  0.00     0.025 A 
HETATM    3  C   UNL     1      -3.249  -1.529  -0.946  1.00  0.00     0.003 A 
HETATM    4  C   UNL     1      -3.870  -0.377  -1.411  1.00  0.00     0.017 A 
HETATM    5  C   UNL     1      -3.068   0.669  -1.835  1.00  0.00     0.088 A 
HETATM    6  N   UNL     1      -1.717   0.632  -1.827  1.00  0.00    -0.369 N 
ATOM      7  HN  UNL     1      -1.163   1.428  -2.144  1.00  0.00     0.165 HD
ENDROOT
BRANCH   1   8
HETATM    8  C   UNL     1       0.383  -0.530  -1.366  1.00  0.00     0.087 C 
BRANCH   8   9
HETATM    9  C   UNL     1       0.928   0.025  -0.049  1.00  0.00     0.276 C 
BRANCH   9  10
HETATM   10  N   UNL     1       2.399   0.028  -0.041  1.00  0.00     0.088 N 
HETATM   11  H   UNL     1       2.730   0.593  -0.824  1.00  0.00     0.316 HD
BRANCH  10  12
HETATM   12  C   UNL     1       2.937   0.551   1.221  1.00  0.00     0.220 A 
HETATM   13  C   UNL     1       4.426   0.575   1.426  1.00  0.00     0.037 A 
HETATM   14  C   UNL     1       3.581  -0.404   2.185  1.00  0.00     0.037 A 
ENDBRANCH  10  12
ENDBRANCH   9  10
ENDBRANCH   8   9
ENDBRANCH   1   8
TORSDOF 4
