REMARK  4 active torsions:
REMARK  status: ('A' for Active; 'I' for Inactive)
REMARK       I    between atoms: N_2  and  C_3 
REMARK    1  A    between atoms: C_3  and  C_5 
REMARK    2  A    between atoms: C_8  and  N_11 
REMARK       I    between atoms: N_11  and  C_12 
REMARK       I    between atoms: C_12  and  N_14 
REMARK    3  A    between atoms: N_14  and  C_15 
REMARK    4  A    between atoms: C_19  and  C_23 
ROOT
HETATM    1  N   UNL     1       6.813   0.507  -3.261  1.00  0.00    -0.338 N 
HETATM    2  C   UNL     1       7.419   1.469  -4.034  1.00  0.00     0.321 C 
HETATM    3  O   UNL     1       6.816   2.403  -4.541  1.00  0.00    -0.247 OA
HETATM    4  N   UNL     1       8.756   1.195  -4.218  1.00  0.00    -0.306 N 
HETATM    5  H   UNL     1       7.372   0.140  -2.504  1.00  0.00     0.164 HD
HETATM    6  H   UNL     1       8.981   0.211  -4.196  1.00  0.00     0.171 HD
ENDROOT
BRANCH   1   7
HETATM    7  C   UNL     1       5.362   0.511  -3.101  1.00  0.00     0.086 C 
HETATM    8  C   UNL     1       4.896   1.566  -2.087  1.00  0.00     0.026 C 
HETATM    9  C   UNL     1       5.175   1.163  -0.639  1.00  0.00     0.016 C 
HETATM   10  C   UNL     1       4.580  -0.211  -0.294  1.00  0.00     0.078 C 
HETATM   11  C   UNL     1       5.088  -1.268  -1.284  1.00  0.00     0.016 C 
HETATM   12  C   UNL     1       4.856  -0.889  -2.749  1.00  0.00     0.026 C 
BRANCH  10  13
HETATM   13  C   UNL     1       3.048  -0.171  -0.226  1.00  0.00     0.221 C 
HETATM   14  N   UNL     1       2.546   0.684   0.730  1.00  0.00    -0.365 N 
HETATM   15  C   UNL     1       1.128   0.899   0.856  1.00  0.00     0.149 C 
HETATM   16  H   UNL     1       3.172   1.156   1.369  1.00  0.00     0.161 HD
HETATM   17  O   UNL     1       2.323  -0.842  -0.953  1.00  0.00    -0.273 OA
ENDBRANCH  10  13
ENDBRANCH   1   7
BRANCH   4  18
HETATM   18  C   UNL     1       9.582   2.034  -4.994  1.00  0.00     0.067 A 
HETATM   19  C   UNL     1       9.496   3.411  -5.002  1.00  0.00     0.120 A 
HETATM   20  N   UNL     1      10.298   4.209  -5.740  1.00  0.00    -0.353 N 
HETATM   21  C   UNL     1      11.211   3.604  -6.523  1.00  0.00     0.088 A 
ATOM     22  HN  UNL     1      10.216   5.225  -5.706  1.00  0.00     0.166 HD
HETATM   23  N   UNL     1      11.367   2.263  -6.593  1.00  0.00    -0.353 N 
HETATM   24  C   UNL     1      10.556   1.513  -5.817  1.00  0.00     0.120 A 
ATOM     25  HN  UNL     1      12.065   1.838  -7.204  1.00  0.00     0.166 HD
BRANCH  21  26
HETATM   26  C   UNL     1      12.165   4.472  -7.339  1.00  0.00     0.007 C 
HETATM   27  C   UNL     1      11.961   5.973  -7.054  1.00  0.00     0.022 C 
HETATM   28  C   UNL     1      13.611   4.098  -6.966  1.00  0.00     0.022 C 
HETATM   29  C   UNL     1      11.940   4.228  -8.841  1.00  0.00     0.022 C 
ENDBRANCH  21  26
ENDBRANCH   4  18
TORSDOF 4
