REMARK  5 active torsions:
REMARK  status: ('A' for Active; 'I' for Inactive)
REMARK    1  A    between atoms: C_2  and  C_4 
REMARK    2  A    between atoms: C_4  and  N_5 
REMARK    3  A    between atoms: C_10  and  C_11 
REMARK    4  A    between atoms: C_11  and  N_12 
REMARK       I    between atoms: N_12  and  C_13 
REMARK       I    between atoms: C_13  and  N_15 
REMARK    5  A    between atoms: N_15  and  C_16 
ROOT
HETATM    1  N   UNL     1       5.232  -3.356   0.823  1.00  0.00    -0.341 N 
HETATM    2  C   UNL     1       5.352  -4.412   1.686  1.00  0.00     0.320 C 
HETATM    3  O   UNL     1       5.285  -5.573   1.295  1.00  0.00    -0.247 OA
HETATM    4  N   UNL     1       5.547  -4.032   2.991  1.00  0.00    -0.304 N 
HETATM    5  H   UNL     1       5.451  -2.417   1.121  1.00  0.00     0.164 HD
HETATM    6  H   UNL     1       5.096  -3.174   3.292  1.00  0.00     0.171 HD
ENDROOT
BRANCH   1   7
HETATM    7  C   UNL     1       4.944  -3.598  -0.578  1.00  0.00     0.160 C 
BRANCH   7   8
HETATM    8  C   UNL     1       5.098  -2.363  -1.496  1.00  0.00     0.240 C 
HETATM    9  N   UNL     1       4.506  -1.056  -1.086  1.00  0.00     0.095 N 
HETATM   10  C   UNL     1       5.023  -0.015  -2.014  1.00  0.00     0.273 C 
HETATM   11  C   UNL     1       4.745  -0.291  -3.500  1.00  0.00     0.030 C 
HETATM   12  C   UNL     1       5.199  -1.685  -3.920  1.00  0.00     0.004 C 
HETATM   13  C   UNL     1       4.721  -2.748  -2.939  1.00  0.00     0.037 C 
BRANCH   9  14
HETATM   14  C   UNL     1       3.025  -0.970  -1.024  1.00  0.00     0.277 C 
BRANCH  14  15
HETATM   15  C   UNL     1       2.332  -1.798   0.076  1.00  0.00     0.006 C 
HETATM   16  C   UNL     1       2.783  -1.398   1.480  1.00  0.00     0.011 C 
HETATM   17  C   UNL     1       0.807  -1.710  -0.022  1.00  0.00     0.011 C 
ENDBRANCH  14  15
ENDBRANCH   9  14
ENDBRANCH   7   8
ENDBRANCH   1   7
BRANCH   4  18
HETATM   18  C   UNL     1       5.893  -4.900   4.017  1.00  0.00     0.105 A 
HETATM   19  C   UNL     1       6.565  -6.049   3.839  1.00  0.00     0.037 A 
HETATM   20  C   UNL     1       6.874  -6.925   4.939  1.00  0.00     0.020 A 
HETATM   21  C   UNL     1       6.467  -6.616   6.175  1.00  0.00     0.094 A 
HETATM   22  N   UNL     1       5.778  -5.446   6.428  1.00  0.00    -0.327 N 
HETATM   23  C   UNL     1       5.299  -5.174   7.773  1.00  0.00     0.159 C 
HETATM   24  C   UNL     1       5.488  -4.513   5.424  1.00  0.00     0.274 A 
HETATM   25  O   UNL     1       4.912  -3.442   5.619  1.00  0.00    -0.266 OA
ENDBRANCH   4  18
TORSDOF 5
