REMARK  3 active torsions:
REMARK  status: ('A' for Active; 'I' for Inactive)
REMARK    1  A    between atoms: O_2  and  C_3 
REMARK    2  A    between atoms: C_7  and  N_8 
REMARK       I    between atoms: N_8  and  C_9 
REMARK       I    between atoms: C_9  and  N_11 
REMARK    3  A    between atoms: N_11  and  C_12 
ROOT
HETATM    1  N   UNL     1       0.299  -1.260   1.256  1.00  0.00    -0.336 N 
HETATM    2  C   UNL     1      -0.355  -0.080   1.469  1.00  0.00     0.322 C 
HETATM    3  O   UNL     1       0.067   0.854   2.126  1.00  0.00    -0.247 OA
HETATM    4  N   UNL     1      -1.652  -0.062   0.871  1.00  0.00    -0.293 N 
HETATM    5  H   UNL     1      -0.051  -1.943   0.605  1.00  0.00     0.164 HD
HETATM    6  H   UNL     1      -1.947  -0.849   0.318  1.00  0.00     0.172 HD
ENDROOT
BRANCH   1   7
HETATM    7  C   UNL     1       1.664  -1.416   1.771  1.00  0.00     0.115 C 
HETATM    8  C   UNL     1       2.783  -1.172   0.733  1.00  0.00     0.143 C 
HETATM    9  C   UNL     1       2.874  -2.490  -0.034  1.00  0.00     0.034 C 
HETATM   10  C   UNL     1       2.396  -3.571   0.933  1.00  0.00     0.005 C 
HETATM   11  C   UNL     1       1.959  -2.849   2.205  1.00  0.00     0.028 C 
BRANCH   8  12
HETATM   12  O   UNL     1       2.531  -0.050  -0.103  1.00  0.00    -0.389 OA
HETATM   13  C   UNL     1       3.633   0.237  -0.963  1.00  0.00     0.202 C 
ENDBRANCH   8  12
ENDBRANCH   1   7
BRANCH   4  14
HETATM   14  C   UNL     1      -2.529   1.025   1.005  1.00  0.00     0.126 A 
HETATM   15  C   UNL     1      -2.395   2.122   1.832  1.00  0.00     0.068 A 
HETATM   16  C   UNL     1      -3.510   2.936   1.574  1.00  0.00     0.111 A 
HETATM   17  N   UNL     1      -4.326   2.394   0.673  1.00  0.00    -0.308 N 
HETATM   18  N   UNL     1      -3.726   1.230   0.351  1.00  0.00    -0.281 N 
ATOM     19  HN  UNL     1      -5.202   2.771   0.310  1.00  0.00     0.186 HD
HETATM   20  C   UNL     1      -4.367   0.390  -0.630  1.00  0.00     0.179 C 
ENDBRANCH   4  14
TORSDOF 3
