REMARK  4 active torsions:
REMARK  status: ('A' for Active; 'I' for Inactive)
REMARK       I    between atoms: C_2  and  N_3 
REMARK       I    between atoms: C_2  and  N_13 
REMARK    1  A    between atoms: N_3  and  C_4 
REMARK    2  A    between atoms: C_4  and  C_5 
REMARK    3  A    between atoms: C_5  and  C_6 
REMARK    4  A    between atoms: N_13  and  C_14 
ROOT
HETATM    1  O   UNL     1       2.535  -0.563  -3.304  1.00  0.00    -0.247 OA
HETATM    2  C   UNL     1       2.156  -0.566  -2.142  1.00  0.00     0.316 C 
HETATM    3  N   UNL     1       0.836  -0.542  -1.755  1.00  0.00    -0.343 N 
HETATM    4  N   UNL     1       2.975  -0.584  -1.045  1.00  0.00    -0.339 N 
HETATM    5  H   UNL     1       0.681  -0.082  -0.870  1.00  0.00     0.164 HD
HETATM    6  H   UNL     1       2.543  -0.917  -0.198  1.00  0.00     0.164 HD
ENDROOT
BRANCH   3   7
HETATM    7  C   UNL     1      -0.207  -0.408  -2.758  1.00  0.00     0.129 C 
BRANCH   7   8
HETATM    8  C   UNL     1      -1.600  -0.445  -2.128  1.00  0.00     0.060 C 
BRANCH   8   9
HETATM    9  C   UNL     1      -2.701  -0.348  -3.147  1.00  0.00    -0.041 A 
HETATM   10  C   UNL     1      -3.216   0.883  -3.555  1.00  0.00     0.010 A 
HETATM   11  C   UNL     1      -4.239   0.927  -4.497  1.00  0.00     0.018 A 
HETATM   12  C   UNL     1      -4.715  -0.271  -5.008  1.00  0.00     0.087 A 
HETATM   13  N   UNL     1      -4.236  -1.482  -4.647  1.00  0.00    -0.375 N 
HETATM   14  C   UNL     1      -3.240  -1.492  -3.731  1.00  0.00     0.094 A 
ATOM     15  HN  UNL     1      -4.607  -2.345  -5.045  1.00  0.00     0.164 HD
ENDBRANCH   8   9
ENDBRANCH   7   8
ENDBRANCH   3   7
BRANCH   4  16
HETATM   16  C   UNL     1       4.438  -0.631  -1.086  1.00  0.00     0.086 C 
HETATM   17  C   UNL     1       5.028   0.639  -1.711  1.00  0.00     0.025 C 
HETATM   18  C   UNL     1       6.516   0.899  -1.449  1.00  0.00     0.002 C 
HETATM   19  C   UNL     1       6.987   0.615  -0.021  1.00  0.00     0.000 C 
HETATM   20  C   UNL     1       7.715  -0.719   0.172  1.00  0.00     0.000 C 
HETATM   21  C   UNL     1       6.929  -2.019  -0.035  1.00  0.00     0.000 C 
HETATM   22  C   UNL     1       6.434  -2.265  -1.463  1.00  0.00     0.002 C 
HETATM   23  C   UNL     1       4.956  -1.934  -1.708  1.00  0.00     0.025 C 
ENDBRANCH   4  16
TORSDOF 4
