REMARK  6 active torsions:
REMARK  status: ('A' for Active; 'I' for Inactive)
REMARK    1  A    between atoms: C_2  and  C_4 
REMARK    2  A    between atoms: C_4  and  C_5 
REMARK    3  A    between atoms: C_5  and  N_6 
REMARK       I    between atoms: N_6  and  C_7 
REMARK    4  A    between atoms: C_7  and  C_9 
REMARK    5  A    between atoms: C_9  and  C_10 
REMARK    6  A    between atoms: C_13  and  N_16 
ROOT
HETATM    1  C   UNL     1       8.435  -2.059   4.144  1.00  0.00     0.026 A 
HETATM    2  C   UNL     1       9.286  -3.143   4.226  1.00  0.00     0.078 A 
HETATM    3  S   UNL     1      10.863  -2.619   4.632  1.00  0.00    -0.064 SA
HETATM    4  C   UNL     1      10.333  -0.986   4.570  1.00  0.00     0.153 A 
HETATM    5  N   UNL     1       9.051  -0.829   4.340  1.00  0.00    -0.339 N 
ATOM      6  HN  UNL     1       8.573   0.071   4.309  1.00  0.00     0.168 HD
ENDROOT
BRANCH   1   7
HETATM    7  C   UNL     1       6.959  -2.104   3.927  1.00  0.00     0.160 C 
BRANCH   7   8
HETATM    8  C   UNL     1       6.523  -1.469   2.623  1.00  0.00     0.223 C 
HETATM    9  N   UNL     1       6.781  -0.122   2.517  1.00  0.00    -0.361 N 
HETATM   10  H   UNL     1       7.429   0.293   3.190  1.00  0.00     0.162 HD
HETATM   11  O   UNL     1       5.917  -2.112   1.762  1.00  0.00    -0.273 OA
BRANCH   9  12
HETATM   12  C   UNL     1       6.395   0.656   1.357  1.00  0.00     0.123 C 
BRANCH  12  13
HETATM   13  C   UNL     1       5.002   1.278   1.498  1.00  0.00     0.023 C 
BRANCH  13  14
HETATM   14  C   UNL     1       4.852   2.281   2.659  1.00  0.00    -0.021 C 
HETATM   15  C   UNL     1       5.803   3.471   2.531  1.00  0.00     0.009 C 
HETATM   16  C   UNL     1       3.407   2.790   2.727  1.00  0.00     0.009 C 
ENDBRANCH  13  14
ENDBRANCH  12  13
ENDBRANCH   9  12
ENDBRANCH   7   8
ENDBRANCH   1   7
BRANCH   4  17
HETATM   17  N   UNL     1      11.288   0.007   4.714  1.00  0.00    -0.298 N 
HETATM   18  C   UNL     1      12.689  -0.156   5.005  1.00  0.00     0.134 C 
HETATM   19  C   UNL     1      13.284   1.237   4.969  1.00  0.00     0.029 C 
HETATM   20  C   UNL     1      12.264   2.080   4.230  1.00  0.00     0.105 C 
HETATM   21  C   UNL     1      10.968   1.319   4.368  1.00  0.00     0.225 C 
HETATM   22  O   UNL     1       9.880   1.819   4.106  1.00  0.00    -0.273 OA
ENDBRANCH   4  17
TORSDOF 6
