REMARK  4 active torsions:
REMARK  status: ('A' for Active; 'I' for Inactive)
REMARK    1  A    between atoms: C_2  and  C_3 
REMARK    2  A    between atoms: C_2  and  N_13 
REMARK    3  A    between atoms: C_3  and  C_4 
REMARK       I    between atoms: N_13  and  C_14 
REMARK       I    between atoms: C_14  and  N_16 
REMARK    4  A    between atoms: N_16  and  C_17 
ROOT
HETATM    1  C   UNL     1       0.969  -0.216  -0.128  1.00  0.00     0.032 C 
HETATM    2  C   UNL     1       2.491  -0.323   0.025  1.00  0.00     0.086 C 
ENDROOT
BRANCH   2   3
HETATM    3  C   UNL     1       2.883  -0.705   1.476  1.00  0.00     0.067 C 
BRANCH   3   4
HETATM    4  C   UNL     1       2.518   0.304   2.534  1.00  0.00    -0.009 A 
HETATM    5  C   UNL     1       3.257   1.457   2.934  1.00  0.00     0.030 A 
HETATM    6  C   UNL     1       4.552   1.972   2.424  1.00  0.00     0.070 C 
HETATM    7  N   UNL     1       2.651   2.110   3.933  1.00  0.00    -0.303 N 
HETATM    8  N   UNL     1       1.576   1.368   4.220  1.00  0.00    -0.300 N 
ATOM      9  HN  UNL     1       2.944   2.980   4.377  1.00  0.00     0.186 HD
HETATM   10  C   UNL     1       0.752   1.747   5.344  1.00  0.00     0.177 C 
HETATM   11  C   UNL     1       1.432   0.277   3.401  1.00  0.00     0.032 A 
HETATM   12  C   UNL     1       0.323  -0.704   3.529  1.00  0.00     0.070 C 
ENDBRANCH   3   4
ENDBRANCH   2   3
BRANCH   2  13
HETATM   13  N   UNL     1       2.990  -1.297  -0.971  1.00  0.00    -0.339 N 
HETATM   14  C   UNL     1       4.336  -1.478  -1.183  1.00  0.00     0.316 C 
HETATM   15  O   UNL     1       5.217  -0.942  -0.528  1.00  0.00    -0.247 OA
HETATM   16  N   UNL     1       4.574  -2.311  -2.255  1.00  0.00    -0.338 N 
HETATM   17  H   UNL     1       3.847  -2.982  -2.462  1.00  0.00     0.164 HD
HETATM   18  H   UNL     1       2.468  -1.334  -1.836  1.00  0.00     0.164 HD
BRANCH  16  19
HETATM   19  C   UNL     1       5.930  -2.627  -2.672  1.00  0.00     0.089 C 
HETATM   20  C   UNL     1       6.051  -2.900  -4.176  1.00  0.00     0.026 C 
HETATM   21  C   UNL     1       7.152  -3.950  -4.334  1.00  0.00     0.002 C 
HETATM   22  C   UNL     1       7.736  -4.159  -2.941  1.00  0.00     0.006 C 
HETATM   23  C   UNL     1       6.582  -3.841  -1.984  1.00  0.00     0.004 C 
HETATM   24  C   UNL     1       5.676  -5.059  -1.802  1.00  0.00     0.012 C 
ENDBRANCH  16  19
ENDBRANCH   2  13
TORSDOF 4
