REMARK  5 active torsions:
REMARK  status: ('A' for Active; 'I' for Inactive)
REMARK    1  A    between atoms: O_2  and  C_3 
REMARK    2  A    between atoms: C_9  and  N_10 
REMARK       I    between atoms: N_10  and  C_11 
REMARK       I    between atoms: C_11  and  N_13 
REMARK    3  A    between atoms: N_13  and  C_14 
REMARK    4  A    between atoms: C_14  and  C_15 
REMARK    5  A    between atoms: C_15  and  N_16 
ROOT
HETATM    1  N   UNL     1       1.954  -2.307  -1.159  1.00  0.00    -0.305 N 
HETATM    2  C   UNL     1       1.872  -1.224  -2.006  1.00  0.00     0.320 C 
HETATM    3  O   UNL     1       2.128  -0.068  -1.677  1.00  0.00    -0.247 OA
HETATM    4  N   UNL     1       1.383  -1.520  -3.262  1.00  0.00    -0.341 N 
HETATM    5  H   UNL     1       2.141  -3.223  -1.546  1.00  0.00     0.171 HD
HETATM    6  H   UNL     1       1.612  -2.423  -3.645  1.00  0.00     0.164 HD
ENDROOT
BRANCH   1   7
HETATM    7  C   UNL     1       2.056  -2.187   0.259  1.00  0.00     0.087 A 
HETATM    8  C   UNL     1       2.525  -3.234   1.060  1.00  0.00     0.169 A 
HETATM    9  N   UNL     1       2.568  -3.196   2.417  1.00  0.00    -0.345 N 
HETATM   10  C   UNL     1       2.172  -2.057   3.017  1.00  0.00     0.090 A 
ATOM     11  HN  UNL     1       2.887  -3.998   2.960  1.00  0.00     0.167 HD
HETATM   12  C   UNL     1       1.731  -0.949   2.322  1.00  0.00     0.019 A 
HETATM   13  C   UNL     1       1.659  -1.024   0.934  1.00  0.00     0.035 A 
BRANCH   8  14
HETATM   14  O   UNL     1       3.015  -4.370   0.432  1.00  0.00    -0.339 OA
HETATM   15  C   UNL     1       3.957  -5.043   1.276  1.00  0.00     0.211 C 
ENDBRANCH   8  14
ENDBRANCH   1   7
BRANCH   4  16
HETATM   16  C   UNL     1       1.218  -0.398  -4.188  1.00  0.00     0.154 C 
BRANCH  16  17
HETATM   17  C   UNL     1       0.182  -0.609  -5.309  1.00  0.00     0.292 C 
BRANCH  17  18
HETATM   18  N   UNL     1       0.077   0.543  -6.233  1.00  0.00     0.090 N 
HETATM   19  C   UNL     1      -0.420   1.788  -5.623  1.00  0.00     0.272 C 
HETATM   20  C   UNL     1      -1.920   1.798  -5.314  1.00  0.00     0.031 C 
HETATM   21  C   UNL     1      -2.757   1.387  -6.522  1.00  0.00     0.007 C 
HETATM   22  C   UNL     1      -2.226   0.101  -7.161  1.00  0.00     0.010 C 
HETATM   23  C   UNL     1      -2.982  -0.220  -8.448  1.00  0.00     0.011 C 
HETATM   24  C   UNL     1      -0.716   0.227  -7.433  1.00  0.00     0.276 C 
ENDBRANCH  17  18
ENDBRANCH  16  17
ENDBRANCH   4  16
TORSDOF 5
