REMARK  5 active torsions:
REMARK  status: ('A' for Active; 'I' for Inactive)
REMARK    1  A    between atoms: C_2  and  O_3 
REMARK    2  A    between atoms: O_3  and  C_4 
REMARK    3  A    between atoms: C_4  and  C_5 
REMARK    4  A    between atoms: C_5  and  N_6 
REMARK    5  A    between atoms: C_7  and  N_19 
ROOT
HETATM    1  N   UNL     1       6.386   1.309  -2.522  1.00  0.00    -0.172 N 
HETATM    2  C   UNL     1       7.164   2.460  -2.534  1.00  0.00     0.684 A 
HETATM    3  N   UNL     1       8.448   2.149  -2.460  1.00  0.00    -0.174 N 
ATOM      4  HN  UNL     1       9.237   2.791  -2.386  1.00  0.00     0.186 HD
HETATM    5  C   UNL     1       8.492   0.788  -2.504  1.00  0.00     0.160 A 
HETATM    6  N   UNL     1       9.616  -0.015  -2.475  1.00  0.00    -0.287 N 
HETATM    7  C   UNL     1      10.959   0.518  -2.420  1.00  0.00     0.163 C 
HETATM    8  C   UNL     1       9.457  -1.398  -2.507  1.00  0.00     0.330 C 
HETATM    9  O   UNL     1      10.395  -2.195  -2.485  1.00  0.00    -0.246 OA
HETATM   10  N   UNL     1       8.169  -1.886  -2.583  1.00  0.00    -0.273 N 
HETATM   11  C   UNL     1       7.017  -1.151  -2.723  1.00  0.00     0.280 C 
HETATM   12  O   UNL     1       5.934  -1.680  -2.949  1.00  0.00    -0.265 OA
HETATM   13  C   UNL     1       7.243   0.245  -2.603  1.00  0.00     0.164 A 
HETATM   14  H   UNL     1       8.079  -2.887  -2.650  1.00  0.00     0.173 HD
ENDROOT
BRANCH   2  15
HETATM   15  N   UNL     1       6.593   3.695  -2.539  1.00  0.00    -0.217 N 
HETATM   16  C   UNL     1       7.370   4.803  -1.968  1.00  0.00     0.141 C 
HETATM   17  C   UNL     1       6.390   5.891  -1.510  1.00  0.00     0.020 C 
HETATM   18  C   UNL     1       5.471   6.340  -2.648  1.00  0.00     0.003 C 
HETATM   19  C   UNL     1       4.794   5.143  -3.314  1.00  0.00     0.020 C 
HETATM   20  C   UNL     1       5.829   4.096  -3.730  1.00  0.00     0.141 C 
ENDBRANCH   2  15
BRANCH   1  21
HETATM   21  C   UNL     1       4.941   1.230  -2.390  1.00  0.00     0.174 C 
BRANCH  21  22
HETATM   22  C   UNL     1       4.445   0.457  -1.169  1.00  0.00     0.188 C 
BRANCH  22  23
HETATM   23  O   UNL     1       4.867   1.110   0.028  1.00  0.00    -0.390 OA
BRANCH  23  24
HETATM   24  C   UNL     1       4.498   0.366   1.186  1.00  0.00     0.163 C 
HETATM   25  C   UNL     1       5.044   1.079   2.405  1.00  0.00     0.033 C 
ENDBRANCH  23  24
ENDBRANCH  22  23
ENDBRANCH  21  22
ENDBRANCH   1  21
TORSDOF 5
