REMARK  5 active torsions:
REMARK  status: ('A' for Active; 'I' for Inactive)
REMARK    1  A    between atoms: C_10  and  N_11 
REMARK    2  A    between atoms: N_11  and  C_12 
REMARK    3  A    between atoms: C_12  and  C_13 
REMARK    4  A    between atoms: C_13  and  O_14 
REMARK    5  A    between atoms: O_14  and  C_15 
ROOT
HETATM    1  N   UNL     1       3.409   0.922  -1.618  1.00  0.00    -0.190 NA
HETATM    2  C   UNL     1       3.359   0.576  -0.510  1.00  0.00     0.121 C 
HETATM    3  C   UNL     1       3.315   0.113   0.847  1.00  0.00     0.158 A 
HETATM    4  N   UNL     1       4.006   0.899   1.727  1.00  0.00    -0.353 N 
ATOM      5  HN  UNL     1       4.538   1.716   1.425  1.00  0.00     0.166 HD
HETATM    6  C   UNL     1       3.938   0.523   3.019  1.00  0.00     0.106 A 
HETATM    7  C   UNL     1       3.220  -0.585   3.422  1.00  0.00     0.106 A 
HETATM    8  N   UNL     1       2.554  -1.376   2.548  1.00  0.00    -0.349 N 
ATOM      9  HN  UNL     1       2.036  -2.197   2.863  1.00  0.00     0.167 HD
HETATM   10  C   UNL     1       2.603  -1.033   1.237  1.00  0.00     0.139 A 
ENDROOT
BRANCH  10  11
HETATM   11  N   UNL     1       1.872  -1.876   0.431  1.00  0.00    -0.372 N 
HETATM   12  H   UNL     1       1.484  -2.639   0.984  1.00  0.00     0.161 HD
BRANCH  11  13
HETATM   13  C   UNL     1       2.297  -2.247  -0.915  1.00  0.00     0.147 C 
BRANCH  13  14
HETATM   14  C   UNL     1       1.893  -3.691  -1.244  1.00  0.00     0.187 C 
BRANCH  14  15
HETATM   15  O   UNL     1       0.475  -3.819  -1.146  1.00  0.00    -0.384 OA
BRANCH  15  16
HETATM   16  C   UNL     1      -0.082  -5.099  -1.482  1.00  0.00     0.121 C 
HETATM   17  C   UNL     1       0.477  -6.209  -0.581  1.00  0.00     0.032 C 
HETATM   18  C   UNL     1      -0.366  -7.479  -0.602  1.00  0.00     0.002 C 
HETATM   19  C   UNL     1      -0.019  -8.457  -1.720  1.00  0.00     0.000 C 
HETATM   20  C   UNL     1       0.285  -7.860  -3.091  1.00  0.00     0.000 C 
HETATM   21  C   UNL     1      -0.580  -6.665  -3.479  1.00  0.00     0.002 C 
HETATM   22  C   UNL     1       0.010  -5.344  -2.992  1.00  0.00     0.032 C 
ENDBRANCH  15  16
ENDBRANCH  14  15
ENDBRANCH  13  14
ENDBRANCH  11  13
ENDBRANCH  10  11
TORSDOF 5
