REMARK  5 active torsions:
REMARK  status: ('A' for Active; 'I' for Inactive)
REMARK    1  A    between atoms: C_4  and  C_5 
REMARK    2  A    between atoms: C_5  and  C_6 
REMARK       I    between atoms: C_6  and  N_8 
REMARK    3  A    between atoms: N_8  and  C_9 
REMARK    4  A    between atoms: C_10  and  C_11 
REMARK    5  A    between atoms: C_11  and  O_12 
ROOT
HETATM    1  C   UNL     1       6.937   4.114  -1.566  1.00  0.00     0.223 C 
HETATM    2  O   UNL     1       6.793   5.036  -2.365  1.00  0.00    -0.273 OA
HETATM    3  N   UNL     1       6.493   4.185  -0.254  1.00  0.00    -0.355 N 
HETATM    4  H   UNL     1       6.389   3.292   0.214  1.00  0.00     0.162 HD
ENDROOT
BRANCH   3   5
HETATM    5  C   UNL     1       5.570   5.233   0.156  1.00  0.00     0.095 C 
HETATM    6  C   UNL     1       6.100   6.699   0.160  1.00  0.00     0.036 C 
HETATM    7  C   UNL     1       5.558   7.241   1.521  1.00  0.00    -0.006 C 
HETATM    8  C   UNL     1       6.477   6.751   2.645  1.00  0.00     0.005 C 
HETATM    9  C   UNL     1       4.316   6.382   1.781  1.00  0.00     0.012 C 
HETATM   10  C   UNL     1       6.232   5.237   2.632  1.00  0.00     0.007 C 
HETATM   11  C   UNL     1       5.079   5.068   1.615  1.00  0.00     0.009 C 
BRANCH   6  12
HETATM   12  C   UNL     1       5.579   7.533  -1.015  1.00  0.00     0.171 C 
BRANCH  12  13
HETATM   13  O   UNL     1       6.131   8.846  -0.979  1.00  0.00    -0.400 OA
HETATM   14  H   UNL     1       5.669   9.346  -0.287  1.00  0.00     0.209 HD
ENDBRANCH  12  13
ENDBRANCH   6  12
ENDBRANCH   3   5
BRANCH   1  15
HETATM   15  C   UNL     1       7.624   2.818  -1.959  1.00  0.00     0.161 C 
BRANCH  15  16
HETATM   16  C   UNL     1       6.934   2.152  -3.107  1.00  0.00     0.036 A 
HETATM   17  C   UNL     1       6.660   2.681  -4.393  1.00  0.00     0.053 A 
HETATM   18  C   UNL     1       6.083   1.651  -5.099  1.00  0.00     0.024 A 
HETATM   19  C   UNL     1       5.603   1.559  -6.496  1.00  0.00     0.070 C 
HETATM   20  N   UNL     1       6.019   0.602  -4.225  1.00  0.00    -0.305 N 
HETATM   21  N   UNL     1       6.527   0.878  -3.011  1.00  0.00    -0.304 N 
HETATM   22  H   UNL     1       5.653  -0.329  -4.392  1.00  0.00     0.186 HD
ATOM     23  HN  UNL     1       6.589   0.260  -2.202  1.00  0.00     0.186 HD
ENDBRANCH  15  16
ENDBRANCH   1  15
TORSDOF 5
