REMARK  7 active torsions:
REMARK  status: ('A' for Active; 'I' for Inactive)
REMARK    1  A    between atoms: C_2  and  C_5 
REMARK    2  A    between atoms: C_5  and  N_6 
REMARK       I    between atoms: N_6  and  C_7 
REMARK    3  A    between atoms: C_7  and  C_9 
REMARK    4  A    between atoms: C_9  and  N_10 
REMARK    5  A    between atoms: N_10  and  C_11 
REMARK    6  A    between atoms: C_11  and  C_12 
REMARK    7  A    between atoms: C_12  and  N_13 
ROOT
HETATM    1  C   UNL     1       6.463  -2.317   1.282  1.00  0.00     0.371 C 
ENDROOT
BRANCH   1   2
HETATM    2  C   UNL     1       4.934  -2.360   1.344  1.00  0.00     0.246 C 
HETATM    3  N   UNL     1       4.435  -2.840   2.534  1.00  0.00    -0.351 N 
HETATM    4  H   UNL     1       5.099  -3.359   3.107  1.00  0.00     0.162 HD
HETATM    5  O   UNL     1       4.218  -1.935   0.445  1.00  0.00    -0.272 OA
BRANCH   3   6
HETATM    6  C   UNL     1       2.996  -2.993   2.734  1.00  0.00     0.240 C 
BRANCH   6   7
HETATM    7  C   UNL     1       2.348  -4.217   2.075  1.00  0.00     0.403 C 
HETATM    8  F   UNL     1       3.257  -5.025   1.482  1.00  0.00    -0.169 F 
HETATM    9  F   UNL     1       1.430  -3.868   1.150  1.00  0.00    -0.169 F 
HETATM   10  F   UNL     1       1.711  -4.965   3.011  1.00  0.00    -0.169 F 
ENDBRANCH   6   7
ENDBRANCH   3   6
ENDBRANCH   1   2
BRANCH   1  11
HETATM   11  N   UNL     1       7.045  -3.449   2.046  1.00  0.00     0.093 N 
HETATM   12  H   UNL     1       6.733  -4.311   1.586  1.00  0.00     0.316 HD
BRANCH  11  13
HETATM   13  C   UNL     1       8.523  -3.429   1.966  1.00  0.00     0.291 C 
BRANCH  13  14
HETATM   14  C   UNL     1       9.175  -2.228   2.661  1.00  0.00     0.178 C 
BRANCH  14  15
HETATM   15  N   UNL     1      10.624  -2.276   2.616  1.00  0.00    -0.302 N 
HETATM   16  C   UNL     1      11.479  -2.226   3.680  1.00  0.00     0.111 A 
HETATM   17  C   UNL     1      12.747  -2.217   3.146  1.00  0.00     0.037 A 
HETATM   18  C   UNL     1      12.549  -2.258   1.755  1.00  0.00     0.108 A 
HETATM   19  N   UNL     1      11.255  -2.289   1.426  1.00  0.00    -0.310 N 
ATOM     20  HN  UNL     1      10.842  -2.316   0.494  1.00  0.00     0.186 HD
ENDBRANCH  14  15
ENDBRANCH  13  14
ENDBRANCH  11  13
ENDBRANCH   1  11
TORSDOF 7
