REMARK  6 active torsions:
REMARK  status: ('A' for Active; 'I' for Inactive)
REMARK    1  A    between atoms: N_1  and  C_12 
REMARK    2  A    between atoms: N_2  and  C_14 
REMARK    3  A    between atoms: C_4  and  C_13 
REMARK    4  A    between atoms: N_6  and  C_15 
REMARK    5  A    between atoms: C_12  and  C_13 
REMARK    6  A    between atoms: C_15  and  C_17 
ROOT
HETATM    1  C   UNL     1      -1.202   1.985   0.098  1.00  0.00     0.221 C 
ENDROOT
BRANCH   1   2
HETATM    2  N   UNL     1      -0.265   2.149  -1.020  1.00  0.00    -0.256 N 
HETATM    3  C   UNL     1       0.048   1.013  -1.747  1.00  0.00     0.334 C 
HETATM    4  N   UNL     1       0.699   1.213  -2.955  1.00  0.00    -0.279 N 
HETATM    5  O   UNL     1      -0.217  -0.118  -1.349  1.00  0.00    -0.246 OA
HETATM    6  C   UNL     1       1.390   2.376  -3.204  1.00  0.00     0.146 C 
HETATM    7  C   UNL     1       1.382   3.369  -2.318  1.00  0.00     0.200 C 
HETATM    8  C   UNL     1       0.504   3.300  -1.121  1.00  0.00     0.292 C 
HETATM    9  F   UNL     1       2.132   4.476  -2.480  1.00  0.00    -0.199 F 
HETATM   10  O   UNL     1       0.523   4.198  -0.282  1.00  0.00    -0.264 OA
BRANCH   4  11
HETATM   11  C   UNL     1       0.533   0.172  -3.957  1.00  0.00     0.232 C 
HETATM   12  O   UNL     1       1.615   0.137  -4.897  1.00  0.00    -0.366 OA
HETATM   13  C   UNL     1       1.078  -0.290  -6.161  1.00  0.00     0.170 C 
HETATM   14  C   UNL     1      -0.425  -0.443  -6.007  1.00  0.00     0.031 C 
HETATM   15  C   UNL     1      -0.719   0.400  -4.796  1.00  0.00     0.056 C 
ENDBRANCH   4  11
ENDBRANCH   1   2
BRANCH   1  16
HETATM   16  C   UNL     1      -2.696   2.053  -0.311  1.00  0.00     0.179 C 
HETATM   17  O   UNL     1      -3.204   3.132  -0.623  1.00  0.00    -0.290 OA
BRANCH  16  18
HETATM   18  C   UNL     1      -3.494   0.805  -0.320  1.00  0.00     0.036 C 
HETATM   19  C   UNL     1      -4.818   0.628   0.097  1.00  0.00     0.022 C 
HETATM   20  N   UNL     1      -5.103  -0.736   0.064  1.00  0.00    -0.348 N 
HETATM   21  C   UNL     1      -5.818   1.649   0.531  1.00  0.00     0.069 C 
HETATM   22  C   UNL     1      -4.078  -1.388  -0.584  1.00  0.00     0.009 C 
HETATM   23  C   UNL     1      -3.113  -0.450  -0.858  1.00  0.00     0.042 C 
HETATM   24  C   UNL     1      -4.069  -2.840  -0.914  1.00  0.00     0.068 C 
BRANCH  20  25
HETATM   25  C   UNL     1      -6.329  -1.399   0.518  1.00  0.00     0.194 C 
BRANCH  25  26
HETATM   26  C   UNL     1      -6.181  -2.095   1.823  1.00  0.00     0.070 A 
HETATM   27  O   UNL     1      -7.155  -3.020   2.097  1.00  0.00    -0.325 OA
HETATM   28  C   UNL     1      -6.869  -3.562   3.308  1.00  0.00     0.142 A 
HETATM   29  C   UNL     1      -5.726  -2.996   3.829  1.00  0.00     0.027 A 
HETATM   30  C   UNL     1      -5.279  -2.049   2.872  1.00  0.00     0.036 A 
ENDBRANCH  25  26
ENDBRANCH  20  25
ENDBRANCH  16  18
ENDBRANCH   1  16
TORSDOF 6
