REMARK  5 active torsions:
REMARK  status: ('A' for Active; 'I' for Inactive)
REMARK    1  A    between atoms: C_4  and  O_5 
REMARK    2  A    between atoms: N_6  and  C_7 
REMARK    3  A    between atoms: C_7  and  C_8 
REMARK    4  A    between atoms: C_15  and  C_16 
REMARK    5  A    between atoms: C_16  and  N_17 
ROOT
HETATM    1  C   UNL     1       1.050   0.047   0.084  1.00  0.00     0.050 C 
HETATM    2  C   UNL     1       2.556   0.106   0.133  1.00  0.00    -0.033 A 
HETATM    3  C   UNL     1       3.265  -1.139   0.303  1.00  0.00     0.064 A 
HETATM    4  C   UNL     1       4.607  -1.163   0.339  1.00  0.00     0.145 A 
HETATM    5  N   UNL     1       5.350  -0.004   0.179  1.00  0.00    -0.291 N 
HETATM    6  C   UNL     1       4.739   1.253   0.069  1.00  0.00     0.269 A 
HETATM    7  O   UNL     1       5.360   2.309  -0.029  1.00  0.00    -0.266 OA
HETATM    8  C   UNL     1       3.252   1.259   0.066  1.00  0.00     0.100 A 
ENDROOT
BRANCH   5   9
HETATM    9  C   UNL     1       6.820  -0.062   0.188  1.00  0.00     0.166 C 
BRANCH   9  10
HETATM   10  C   UNL     1       7.501  -0.316  -1.170  1.00  0.00     0.140 C 
HETATM   11  C   UNL     1       7.254   0.689  -2.291  1.00  0.00     0.035 C 
HETATM   12  C   UNL     1       7.118  -0.156  -3.544  1.00  0.00     0.029 C 
HETATM   13  C   UNL     1       7.532  -1.542  -3.107  1.00  0.00     0.168 C 
HETATM   14  O   UNL     1       7.195  -1.610  -1.720  1.00  0.00    -0.384 OA
ENDBRANCH   9  10
ENDBRANCH   5   9
BRANCH   4  15
HETATM   15  O   UNL     1       5.302  -2.320   0.586  1.00  0.00    -0.346 OA
HETATM   16  H   UNL     1       4.673  -3.050   0.697  1.00  0.00     0.219 HD
ENDBRANCH   4  15
BRANCH   8  17
HETATM   17  C   UNL     1       2.493   2.576   0.068  1.00  0.00    -0.031 C 
BRANCH  17  18
HETATM   18  N   UNL     1       1.863   3.668   0.070  1.00  0.00    -0.365 N 
ATOM     19  HN2 UNL     1       2.352   2.773   0.082  1.00  0.00     0.165 HD
ATOM     20  HN1 UNL     1       1.354   4.552   0.071  1.00  0.00     0.165 HD
ENDBRANCH  17  18
ENDBRANCH   8  17
TORSDOF 5
