REMARK  4 active torsions:
REMARK  status: ('A' for Active; 'I' for Inactive)
REMARK    1  A    between atoms: C_2  and  C_3 
REMARK    2  A    between atoms: C_2  and  N_14 
REMARK       I    between atoms: C_3  and  N_5 
REMARK    3  A    between atoms: N_5  and  C_6 
REMARK    4  A    between atoms: C_6  and  C_7 
ROOT
HETATM    1  C   UNL     1       3.043   1.252   0.747  1.00  0.00     0.242 C 
HETATM    2  O   UNL     1       3.886   1.223   1.643  1.00  0.00    -0.271 OA
HETATM    3  N   UNL     1       2.563   2.449   0.242  1.00  0.00    -0.359 N 
HETATM    4  H   UNL     1       1.990   2.423  -0.599  1.00  0.00     0.162 HD
ENDROOT
BRANCH   1   5
HETATM    5  C   UNL     1       2.409  -0.013   0.179  1.00  0.00     0.196 C 
HETATM    6  C   UNL     1       2.965  -1.262   0.866  1.00  0.00     0.044 C 
BRANCH   5   7
HETATM    7  N   UNL     1       2.542  -0.057  -1.267  1.00  0.00    -0.273 N 
HETATM    8  C   UNL     1       3.505  -0.648  -2.026  1.00  0.00     0.202 A 
HETATM    9  N   UNL     1       3.197  -0.530  -3.297  1.00  0.00    -0.346 N 
HETATM   10  C   UNL     1       2.025   0.167  -3.270  1.00  0.00     0.198 A 
ATOM     11  HN  UNL     1       3.710  -0.876  -4.108  1.00  0.00     0.167 HD
HETATM   12  N   UNL     1       1.602   0.519  -2.051  1.00  0.00    -0.292 N 
ATOM     13  HN  UNL     1       0.788   1.073  -1.784  1.00  0.00     0.188 HD
ENDBRANCH   5   7
ENDBRANCH   1   5
BRANCH   3  14
HETATM   14  C   UNL     1       3.096   3.698   0.742  1.00  0.00     0.128 C 
BRANCH  14  15
HETATM   15  C   UNL     1       2.550   4.935   0.034  1.00  0.00     0.018 C 
HETATM   16  C   UNL     1       2.904   4.964  -1.466  1.00  0.00     0.022 C 
HETATM   17  C   UNL     1       2.971   6.408  -1.967  1.00  0.00     0.141 C 
HETATM   18  S   UNL     1       2.833   7.468  -0.545  1.00  0.00     0.144 S 
HETATM   19  O   UNL     1       3.935   8.406  -0.536  1.00  0.00    -0.228 OA
HETATM   20  O   UNL     1       1.455   7.892  -0.420  1.00  0.00    -0.228 OA
HETATM   21  C   UNL     1       3.141   6.202   0.651  1.00  0.00     0.146 C 
ENDBRANCH  14  15
ENDBRANCH   3  14
TORSDOF 4
