REMARK  7 active torsions:
REMARK  status: ('A' for Active; 'I' for Inactive)
REMARK    1  A    between atoms: C_2  and  C_3 
REMARK    2  A    between atoms: C_3  and  S_4 
REMARK    3  A    between atoms: S_4  and  N_7 
REMARK    4  A    between atoms: N_7  and  C_8 
REMARK    5  A    between atoms: C_8  and  C_9 
REMARK    6  A    between atoms: C_9  and  O_10 
REMARK    7  A    between atoms: C_9  and  C_11 
ROOT
HETATM    1  C   UNL     1       7.376  -2.082  -4.038  1.00  0.00     0.186 C 
ENDROOT
BRANCH   1   2
HETATM    2  C   UNL     1       6.942  -1.517  -2.673  1.00  0.00     0.170 C 
BRANCH   2   3
HETATM    3  N   UNL     1       5.474  -1.313  -2.577  1.00  0.00    -0.317 N 
HETATM    4  H   UNL     1       5.040  -0.834  -3.362  1.00  0.00     0.172 HD
BRANCH   3   5
HETATM    5  S   UNL     1       4.883  -0.843  -1.064  1.00  0.00     0.226 S 
HETATM    6  O   UNL     1       6.008  -0.656  -0.173  1.00  0.00    -0.206 OA
HETATM    7  O   UNL     1       3.785  -1.725  -0.749  1.00  0.00    -0.206 OA
BRANCH   5   8
HETATM    8  C   UNL     1       4.197   0.763  -1.459  1.00  0.00     0.163 C 
BRANCH   8   9
HETATM    9  C   UNL     1       3.789   1.507  -0.196  1.00  0.00     0.012 C 
HETATM   10  C   UNL     1       3.162   2.852  -0.517  1.00  0.00     0.006 C 
ENDBRANCH   8   9
ENDBRANCH   5   8
ENDBRANCH   3   5
ENDBRANCH   2   3
ENDBRANCH   1   2
BRANCH   1  11
HETATM   11  O   UNL     1       8.809  -2.191  -4.050  1.00  0.00    -0.388 OA
HETATM   12  H   UNL     1       8.985  -3.146  -3.910  1.00  0.00     0.210 HD
ENDBRANCH   1  11
BRANCH   1  13
HETATM   13  C   UNL     1       6.767  -3.442  -4.322  1.00  0.00     0.039 A 
HETATM   14  C   UNL     1       5.544  -3.544  -4.984  1.00  0.00     0.028 A 
HETATM   15  C   UNL     1       5.004  -4.805  -5.205  1.00  0.00     0.003 A 
HETATM   16  C   UNL     1       5.695  -5.927  -4.764  1.00  0.00     0.017 A 
HETATM   17  C   UNL     1       6.910  -5.741  -4.127  1.00  0.00     0.088 A 
HETATM   18  N   UNL     1       7.469  -4.530  -3.904  1.00  0.00    -0.367 N 
ATOM     19  HN  UNL     1       8.375  -4.437  -3.444  1.00  0.00     0.165 HD
ENDBRANCH   1  13
TORSDOF 7
