REMARK  6 active torsions:
REMARK  status: ('A' for Active; 'I' for Inactive)
REMARK    1  A    between atoms: N_8  and  C_9 
REMARK    2  A    between atoms: C_9  and  C_10 
REMARK    3  A    between atoms: C_10  and  O_11 
REMARK    4  A    between atoms: C_10  and  C_12 
REMARK    5  A    between atoms: C_12  and  N_13 
REMARK    6  A    between atoms: C_16  and  O_17 
ROOT
HETATM    1  C   UNL     1       7.528   0.883   0.049  1.00  0.00     0.163 C 
ENDROOT
BRANCH   1   2
HETATM    2  N   UNL     1       6.405  -0.041   0.080  1.00  0.00    -0.339 N 
HETATM    3  C   UNL     1       5.881  -0.593   1.217  1.00  0.00     0.184 A 
HETATM    4  N   UNL     1       4.858  -1.371   0.954  1.00  0.00    -0.350 N 
HETATM    5  C   UNL     1       4.712  -1.320  -0.408  1.00  0.00     0.060 A 
ATOM      6  HN  UNL     1       4.293  -1.899   1.619  1.00  0.00     0.166 HD
HETATM    7  C   UNL     1       3.757  -1.942  -1.219  1.00  0.00     0.039 A 
HETATM    8  C   UNL     1       5.684  -0.512  -0.991  1.00  0.00     0.062 A 
HETATM    9  C   UNL     1       3.783  -1.741  -2.614  1.00  0.00    -0.054 A 
HETATM   10  C   UNL     1       2.715  -2.384  -3.459  1.00  0.00     0.049 C 
HETATM   11  C   UNL     1       4.793  -0.936  -3.187  1.00  0.00    -0.054 A 
HETATM   12  C   UNL     1       5.767  -0.317  -2.375  1.00  0.00     0.039 A 
HETATM   13  C   UNL     1       4.843  -0.709  -4.677  1.00  0.00     0.049 C 
ENDBRANCH   1   2
BRANCH   1  14
HETATM   14  C   UNL     1       7.081   2.355   0.114  1.00  0.00     0.164 C 
BRANCH  14  15
HETATM   15  O   UNL     1       6.424   2.634   1.360  1.00  0.00    -0.392 OA
HETATM   16  H   UNL     1       7.029   2.423   2.091  1.00  0.00     0.210 HD
ENDBRANCH  14  15
BRANCH  14  17
HETATM   17  C   UNL     1       8.273   3.339  -0.032  1.00  0.00     0.305 C 
BRANCH  17  18
HETATM   18  N   UNL     1       9.093   3.125  -1.228  1.00  0.00     0.091 N 
HETATM   19  C   UNL     1       8.379   3.410  -2.480  1.00  0.00     0.275 C 
HETATM   20  C   UNL     1       9.187   2.826  -3.636  1.00  0.00     0.062 C 
HETATM   21  C   UNL     1      10.616   3.364  -3.674  1.00  0.00     0.121 C 
HETATM   22  C   UNL     1      11.277   3.393  -2.294  1.00  0.00     0.062 C 
HETATM   23  C   UNL     1      10.340   3.904  -1.196  1.00  0.00     0.275 C 
BRANCH  21  24
HETATM   24  O   UNL     1      10.630   4.670  -4.252  1.00  0.00    -0.395 OA
HETATM   25  H   UNL     1      10.138   5.275  -3.674  1.00  0.00     0.210 HD
ENDBRANCH  21  24
ENDBRANCH  17  18
ENDBRANCH  14  17
ENDBRANCH   1  14
TORSDOF 6
