REMARK  8 active torsions:
REMARK  status: ('A' for Active; 'I' for Inactive)
REMARK    1  A    between atoms: C_2  and  C_3 
REMARK    2  A    between atoms: C_3  and  S_4 
REMARK    3  A    between atoms: S_4  and  N_7 
REMARK    4  A    between atoms: N_7  and  C_9 
REMARK    5  A    between atoms: C_9  and  C_10 
REMARK    6  A    between atoms: C_10  and  O_11 
REMARK    7  A    between atoms: C_10  and  C_12 
REMARK    8  A    between atoms: C_12  and  N_13 
ROOT
HETATM    1  C   UNL     1       8.907   3.886   2.554  1.00  0.00     0.163 C 
ENDROOT
BRANCH   1   2
HETATM    2  C   UNL     1       7.390   3.737   2.751  1.00  0.00     0.150 C 
BRANCH   2   3
HETATM    3  C   UNL     1       6.885   2.514   1.945  1.00  0.00     0.140 C 
BRANCH   3   4
HETATM    4  N   UNL     1       5.388   2.338   1.922  1.00  0.00    -0.212 NA
HETATM    5  C   UNL     1       4.769   2.362   3.280  1.00  0.00     0.129 C 
BRANCH   4   6
HETATM    6  S   UNL     1       4.861   0.959   1.027  1.00  0.00     0.211 S 
HETATM    7  O   UNL     1       3.420   0.880   1.146  1.00  0.00    -0.211 OA
HETATM    8  O   UNL     1       5.709  -0.147   1.420  1.00  0.00    -0.211 OA
BRANCH   6   9
HETATM    9  C   UNL     1       5.248   1.418  -0.661  1.00  0.00     0.157 C 
BRANCH   9  10
HETATM   10  C   UNL     1       4.744   0.356  -1.634  1.00  0.00     0.012 C 
HETATM   11  C   UNL     1       5.090   0.708  -3.070  1.00  0.00     0.006 C 
ENDBRANCH   9  10
ENDBRANCH   6   9
ENDBRANCH   4   6
ENDBRANCH   3   4
ENDBRANCH   2   3
BRANCH   2  12
HETATM   12  O   UNL     1       7.129   3.564   4.152  1.00  0.00    -0.393 OA
HETATM   13  H   UNL     1       7.459   2.695   4.436  1.00  0.00     0.210 HD
ENDBRANCH   2  12
ENDBRANCH   1   2
BRANCH   1  14
HETATM   14  N   UNL     1       9.470   5.007   3.281  1.00  0.00    -0.339 N 
HETATM   15  C   UNL     1       9.877   4.963   4.587  1.00  0.00     0.184 A 
HETATM   16  N   UNL     1      10.442   6.086   4.961  1.00  0.00    -0.350 N 
HETATM   17  C   UNL     1      10.381   6.897   3.856  1.00  0.00     0.060 A 
ATOM     18  HN  UNL     1      10.840   6.308   5.874  1.00  0.00     0.166 HD
HETATM   19  C   UNL     1      10.845   8.209   3.694  1.00  0.00     0.039 A 
HETATM   20  C   UNL     1       9.767   6.253   2.787  1.00  0.00     0.062 A 
HETATM   21  C   UNL     1      10.686   8.860   2.455  1.00  0.00    -0.054 A 
HETATM   22  C   UNL     1      11.220  10.260   2.319  1.00  0.00     0.049 C 
HETATM   23  C   UNL     1      10.044   8.194   1.388  1.00  0.00    -0.054 A 
HETATM   24  C   UNL     1       9.822   8.839   0.044  1.00  0.00     0.049 C 
HETATM   25  C   UNL     1       9.576   6.872   1.547  1.00  0.00     0.039 A 
ENDBRANCH   1  14
TORSDOF 8
