REMARK  4 active torsions:
REMARK  status: ('A' for Active; 'I' for Inactive)
REMARK    1  A    between atoms: N_2  and  C_3 
REMARK    2  A    between atoms: N_4  and  C_18 
REMARK    3  A    between atoms: C_18  and  C_20 
REMARK    4  A    between atoms: C_20  and  O_25 
ROOT
HETATM    1  C   UNL     1       0.334  -0.780  -0.181  1.00  0.00     0.117 A 
HETATM    2  C   UNL     1      -0.832  -1.579  -0.167  1.00  0.00     0.115 A 
HETATM    3  N   UNL     1       1.417   1.120  -0.139  1.00  0.00    -0.324 N 
HETATM    4  C   UNL     1       0.161   0.592  -0.237  1.00  0.00     0.140 A 
HETATM    5  N   UNL     1       1.688  -1.082  -0.091  1.00  0.00    -0.346 N 
ATOM      6  HN  UNL     1       2.114  -2.008  -0.062  1.00  0.00     0.167 HD
HETATM    7  C   UNL     1       2.302   0.078  -0.052  1.00  0.00     0.185 A 
HETATM    8  N   UNL     1      -2.025  -0.930  -0.282  1.00  0.00    -0.341 N 
ATOM      9  HN  UNL     1      -2.897  -1.457  -0.322  1.00  0.00     0.167 HD
HETATM   10  N   UNL     1      -0.994   1.266  -0.319  1.00  0.00    -0.336 N 
ATOM     11  HN  UNL     1      -1.071   2.282  -0.359  1.00  0.00     0.168 HD
HETATM   12  C   UNL     1      -2.039   0.419  -0.342  1.00  0.00     0.183 A 
ENDROOT
BRANCH   2  13
HETATM   13  N   UNL     1      -0.790  -2.959   0.065  1.00  0.00    -0.252 NA
HETATM   14  C   UNL     1      -1.944  -3.563   0.765  1.00  0.00     0.088 C 
HETATM   15  C   UNL     1      -1.519  -5.018   1.129  1.00  0.00     0.102 C 
HETATM   16  C   UNL     1      -2.325  -2.822   2.063  1.00  0.00     0.022 C 
HETATM   17  N   UNL     1      -1.114  -5.777  -0.045  1.00  0.00    -0.354 N 
HETATM   18  C   UNL     1      -2.614  -5.752   1.904  1.00  0.00     0.027 C 
HETATM   19  C   UNL     1      -0.332  -5.191  -1.015  1.00  0.00     0.231 C 
HETATM   20  H   UNL     1      -0.908  -6.764   0.064  1.00  0.00     0.162 HD
HETATM   21  C   UNL     1      -0.434  -3.664  -1.190  1.00  0.00     0.200 C 
HETATM   22  O   UNL     1       0.331  -5.903  -1.768  1.00  0.00    -0.272 OA
HETATM   23  C   UNL     1      -2.997  -4.986   3.166  1.00  0.00     0.002 C 
HETATM   24  C   UNL     1      -3.413  -3.559   2.839  1.00  0.00     0.002 C 
ENDBRANCH   2  13
BRANCH   3  25
HETATM   25  C   UNL     1       1.729   2.525   0.027  1.00  0.00     0.169 C 
BRANCH  25  26
HETATM   26  C   UNL     1       2.124   3.276  -1.266  1.00  0.00     0.078 C 
HETATM   27  C   UNL     1       2.480   4.734  -0.910  1.00  0.00     0.066 C 
HETATM   28  C   UNL     1       1.239   5.591  -0.712  1.00  0.00     0.170 C 
HETATM   29  O   UNL     1       0.452   5.575  -1.897  1.00  0.00    -0.391 OA
HETATM   30  C   UNL     1      -0.055   4.276  -2.190  1.00  0.00     0.170 C 
HETATM   31  C   UNL     1       1.072   3.267  -2.390  1.00  0.00     0.066 C 
BRANCH  26  32
HETATM   32  O   UNL     1       3.338   2.677  -1.757  1.00  0.00    -0.388 OA
HETATM   33  H   UNL     1       3.130   1.798  -2.121  1.00  0.00     0.210 HD
ENDBRANCH  26  32
ENDBRANCH  25  26
ENDBRANCH   3  25
TORSDOF 4
