REMARK  5 active torsions:
REMARK  status: ('A' for Active; 'I' for Inactive)
REMARK    1  A    between atoms: C_2  and  C_3 
REMARK    2  A    between atoms: C_3  and  N_4 
REMARK       I    between atoms: N_8  and  C_12 
REMARK       I    between atoms: C_12  and  N_14 
REMARK    3  A    between atoms: N_14  and  C_15 
REMARK    4  A    between atoms: C_15  and  C_16 
REMARK    5  A    between atoms: C_16  and  C_17 
ROOT
HETATM    1  N   UNL     1       4.666  -0.694   1.258  1.00  0.00    -0.351 N 
HETATM    2  C   UNL     1       5.403   0.569   1.197  1.00  0.00     0.127 C 
HETATM    3  C   UNL     1       5.989   0.982   2.538  1.00  0.00     0.040 C 
HETATM    4  C   UNL     1       7.400   0.428   2.716  1.00  0.00     0.129 C 
HETATM    5  N   UNL     1       7.552  -0.955   2.272  1.00  0.00    -0.325 N 
HETATM    6  C   UNL     1       6.466  -1.885   2.564  1.00  0.00     0.230 C 
HETATM    7  C   UNL     1       5.247  -1.912   1.623  1.00  0.00     0.237 C 
HETATM    8  O   UNL     1       4.654  -2.982   1.442  1.00  0.00    -0.272 OA
HETATM    9  C   UNL     1       8.638  -1.473   1.589  1.00  0.00     0.318 C 
HETATM   10  O   UNL     1       8.640  -2.598   1.098  1.00  0.00    -0.247 OA
HETATM   11  N   UNL     1       9.728  -0.645   1.491  1.00  0.00    -0.343 N 
HETATM   12  H   UNL     1       9.859  -0.013   2.265  1.00  0.00     0.164 HD
ENDROOT
BRANCH  11  13
HETATM   13  C   UNL     1      10.941  -1.132   0.853  1.00  0.00     0.129 C 
BRANCH  13  14
HETATM   14  C   UNL     1      10.857  -1.062  -0.674  1.00  0.00     0.060 C 
BRANCH  14  15
HETATM   15  C   UNL     1      12.071  -1.650  -1.336  1.00  0.00    -0.041 A 
HETATM   16  C   UNL     1      12.119  -3.004  -1.683  1.00  0.00     0.010 A 
HETATM   17  C   UNL     1      13.261  -3.524  -2.285  1.00  0.00     0.018 A 
HETATM   18  C   UNL     1      14.326  -2.670  -2.513  1.00  0.00     0.087 A 
HETATM   19  N   UNL     1      14.320  -1.360  -2.181  1.00  0.00    -0.375 N 
HETATM   20  C   UNL     1      13.194  -0.880  -1.605  1.00  0.00     0.094 A 
ATOM     21  HN  UNL     1      15.127  -0.761  -2.357  1.00  0.00     0.164 HD
ENDBRANCH  14  15
ENDBRANCH  13  14
ENDBRANCH  11  13
BRANCH   1  22
HETATM   22  C   UNL     1       3.204  -0.658   1.149  1.00  0.00     0.125 C 
BRANCH  22  23
HETATM   23  C   UNL     1       2.633  -0.037  -0.124  1.00  0.00     0.015 C 
HETATM   24  C   UNL     1       3.053  -0.771  -1.385  1.00  0.00     0.006 C 
ENDBRANCH  22  23
ENDBRANCH   1  22
TORSDOF 5
