REMARK  6 active torsions:
REMARK  status: ('A' for Active; 'I' for Inactive)
REMARK    1  A    between atoms: N_2  and  C_3 
REMARK       I    between atoms: N_2  and  C_11 
REMARK    2  A    between atoms: C_3  and  C_4 
REMARK    3  A    between atoms: C_9  and  O_10 
REMARK       I    between atoms: C_11  and  N_13 
REMARK    4  A    between atoms: N_13  and  C_14 
REMARK    5  A    between atoms: C_14  and  C_15 
REMARK    6  A    between atoms: C_15  and  C_18 
ROOT
HETATM    1  C   UNL     1       1.080  -0.461  -0.046  1.00  0.00     0.154 C 
HETATM    2  N   UNL     1       2.522  -0.268  -0.071  1.00  0.00    -0.338 N 
HETATM    3  C   UNL     1       3.233  -1.019   0.853  1.00  0.00     0.317 C 
HETATM    4  O   UNL     1       2.674  -1.771   1.650  1.00  0.00    -0.247 OA
HETATM    5  N   UNL     1       4.601  -0.890   0.840  1.00  0.00    -0.342 N 
HETATM    6  H   UNL     1       5.014  -0.586  -0.023  1.00  0.00     0.164 HD
ENDROOT
BRANCH   2   7
HETATM    7  C   UNL     1       3.060   0.638  -1.098  1.00  0.00     0.134 C 
BRANCH   7   8
HETATM    8  C   UNL     1       3.229   2.105  -0.637  1.00  0.00     0.032 C 
HETATM    9  C   UNL     1       1.898   2.822  -0.328  1.00  0.00     0.009 C 
HETATM   10  C   UNL     1       1.090   3.184  -1.577  1.00  0.00     0.001 C 
HETATM   11  C   UNL     1       1.915   4.002  -2.564  1.00  0.00     0.002 C 
HETATM   12  C   UNL     1       3.214   3.292  -2.920  1.00  0.00     0.032 C 
HETATM   13  C   UNL     1       4.023   2.947  -1.663  1.00  0.00     0.123 C 
BRANCH  13  14
HETATM   14  O   UNL     1       5.238   2.293  -2.020  1.00  0.00    -0.395 OA
HETATM   15  H   UNL     1       5.082   1.752  -2.812  1.00  0.00     0.210 HD
ENDBRANCH  13  14
ENDBRANCH   7   8
ENDBRANCH   2   7
BRANCH   5  16
HETATM   16  C   UNL     1       5.401  -1.775   1.684  1.00  0.00     0.138 C 
BRANCH  16  17
HETATM   17  C   UNL     1       6.937  -1.512   1.663  1.00  0.00    -0.004 C 
HETATM   18  C   UNL     1       7.501  -1.729   0.239  1.00  0.00     0.021 C 
HETATM   19  C   UNL     1       7.190  -0.033   2.039  1.00  0.00     0.021 C 
BRANCH  17  20
HETATM   20  C   UNL     1       7.638  -2.503   2.621  1.00  0.00    -0.046 A 
HETATM   21  C   UNL     1       7.550  -3.889   2.408  1.00  0.00     0.025 A 
HETATM   22  C   UNL     1       8.199  -4.763   3.271  1.00  0.00     0.088 A 
HETATM   23  N   UNL     1       8.928  -4.369   4.332  1.00  0.00    -0.375 N 
HETATM   24  C   UNL     1       9.004  -3.041   4.539  1.00  0.00     0.088 A 
ATOM     25  HN  UNL     1       9.396  -5.038   4.944  1.00  0.00     0.164 HD
HETATM   26  C   UNL     1       8.392  -2.088   3.729  1.00  0.00     0.025 A 
ENDBRANCH  17  20
ENDBRANCH  16  17
ENDBRANCH   5  16
TORSDOF 6
