REMARK  5 active torsions:
REMARK  status: ('A' for Active; 'I' for Inactive)
REMARK    1  A    between atoms: O_2  and  C_3 
REMARK    2  A    between atoms: C_3  and  C_4 
REMARK    3  A    between atoms: C_4  and  N_5 
REMARK    4  A    between atoms: C_6  and  C_15 
REMARK    5  A    between atoms: C_15  and  O_17 
ROOT
HETATM    1  N   UNL     1       4.875  -1.845  -1.947  1.00  0.00    -0.331 N 
HETATM    2  C   UNL     1       5.446  -1.450  -3.156  1.00  0.00     0.113 A 
HETATM    3  N   UNL     1       5.577  -2.477  -3.972  1.00  0.00    -0.342 N 
ATOM      4  HN  UNL     1       5.934  -2.457  -4.927  1.00  0.00     0.167 HD
HETATM    5  C   UNL     1       5.141  -3.569  -3.288  1.00  0.00     0.060 A 
HETATM    6  C   UNL     1       5.091  -4.907  -3.713  1.00  0.00     0.032 A 
HETATM    7  C   UNL     1       4.614  -5.892  -2.842  1.00  0.00     0.002 A 
HETATM    8  C   UNL     1       4.206  -5.553  -1.561  1.00  0.00     0.002 A 
HETATM    9  C   UNL     1       4.258  -4.228  -1.120  1.00  0.00     0.032 A 
HETATM   10  C   UNL     1       4.716  -3.231  -2.000  1.00  0.00     0.062 A 
ENDROOT
BRANCH   1  11
HETATM   11  C   UNL     1       4.482  -0.928  -0.872  1.00  0.00     0.156 C 
BRANCH  11  12
HETATM   12  C   UNL     1       3.896  -1.618   0.355  1.00  0.00     0.187 C 
BRANCH  12  13
HETATM   13  O   UNL     1       3.459  -0.763   1.408  1.00  0.00    -0.394 OA
HETATM   14  C   UNL     1       2.919  -1.577   2.460  1.00  0.00     0.201 C 
ENDBRANCH  12  13
ENDBRANCH  11  12
ENDBRANCH   1  11
BRANCH   2  15
HETATM   15  C   UNL     1       5.891  -0.055  -3.503  1.00  0.00     0.181 C 
HETATM   16  C   UNL     1       6.514   0.010  -4.900  1.00  0.00     0.047 C 
BRANCH  15  17
HETATM   17  O   UNL     1       4.747   0.795  -3.465  1.00  0.00    -0.388 OA
HETATM   18  H   UNL     1       4.249   0.624  -4.284  1.00  0.00     0.210 HD
ENDBRANCH  15  17
ENDBRANCH   2  15
TORSDOF 5
