REMARK  4 active torsions:
REMARK  status: ('A' for Active; 'I' for Inactive)
REMARK    1  A    between atoms: C_2  and  C_3 
REMARK    2  A    between atoms: C_2  and  C_14 
REMARK    3  A    between atoms: C_3  and  N_4 
REMARK       I    between atoms: N_4  and  C_5 
REMARK    4  A    between atoms: C_5  and  C_7 
ROOT
HETATM    1  C   UNL     1       3.047  -0.322   1.303  1.00  0.00     0.131 C 
ENDROOT
BRANCH   1   2
HETATM    2  C   UNL     1       2.429   0.120  -0.039  1.00  0.00     0.037 C 
HETATM    3  C   UNL     1       2.913   1.516  -0.443  1.00  0.00     0.017 C 
BRANCH   2   4
HETATM    4  C   UNL     1       0.931  -0.044  -0.065  1.00  0.00     0.003 A 
HETATM    5  C   UNL     1       0.202  -1.232  -0.390  1.00  0.00     0.038 A 
HETATM    6  C   UNL     1       0.697  -2.576  -0.775  1.00  0.00     0.071 C 
HETATM    7  N   UNL     1      -1.117  -1.033  -0.311  1.00  0.00    -0.265 N 
HETATM    8  O   UNL     1      -1.281   0.281   0.059  1.00  0.00    -0.242 OA
ATOM      9  HN  UNL     1      -1.853  -1.717  -0.489  1.00  0.00     0.194 HD
HETATM   10  C   UNL     1      -0.067   0.870   0.210  1.00  0.00     0.081 A 
HETATM   11  C   UNL     1      -0.106   2.293   0.607  1.00  0.00     0.079 C 
ENDBRANCH   2   4
ENDBRANCH   1   2
BRANCH   1  12
HETATM   12  N   UNL     1       2.647   0.486   2.447  1.00  0.00    -0.360 N 
HETATM   13  C   UNL     1       3.489   0.627   3.531  1.00  0.00     0.223 C 
HETATM   14  O   UNL     1       4.645   0.218   3.531  1.00  0.00    -0.273 OA
HETATM   15  H   UNL     1       1.656   0.643   2.580  1.00  0.00     0.162 HD
BRANCH  13  16
HETATM   16  C   UNL     1       2.884   1.383   4.698  1.00  0.00     0.104 C 
HETATM   17  C   UNL     1       3.869   1.490   5.855  1.00  0.00     0.139 C 
HETATM   18  N   UNL     1       3.037   1.508   7.029  1.00  0.00    -0.356 N 
HETATM   19  C   UNL     1       3.611   1.510   8.355  1.00  0.00     0.152 C 
HETATM   20  C   UNL     1       1.801   0.929   6.786  1.00  0.00     0.220 C 
HETATM   21  O   UNL     1       0.964   0.623   7.620  1.00  0.00    -0.273 OA
HETATM   22  C   UNL     1       1.677   0.670   5.306  1.00  0.00     0.118 C 
ENDBRANCH  13  16
ENDBRANCH   1  12
TORSDOF 4
