REMARK  5 active torsions:
REMARK  status: ('A' for Active; 'I' for Inactive)
REMARK       I    between atoms: C_2  and  N_3 
REMARK       I    between atoms: C_2  and  N_13 
REMARK    1  A    between atoms: N_3  and  C_4 
REMARK    2  A    between atoms: C_4  and  C_5 
REMARK    3  A    between atoms: C_5  and  C_6 
REMARK    4  A    between atoms: N_13  and  C_14 
REMARK    5  A    between atoms: C_14  and  C_15 
ROOT
HETATM    1  O   UNL     1       1.093  -0.001   0.021  1.00  0.00    -0.247 OA
HETATM    2  C   UNL     1       2.312  -0.028  -0.063  1.00  0.00     0.316 C 
HETATM    3  N   UNL     1       3.023  -1.028  -0.676  1.00  0.00    -0.343 N 
HETATM    4  N   UNL     1       3.140   0.907   0.503  1.00  0.00    -0.343 N 
HETATM    5  H   UNL     1       3.909  -0.746  -1.067  1.00  0.00     0.164 HD
HETATM    6  H   UNL     1       4.133   0.822   0.349  1.00  0.00     0.164 HD
ENDROOT
BRANCH   3   7
HETATM    7  C   UNL     1       2.327  -2.116  -1.358  1.00  0.00     0.130 C 
BRANCH   7   8
HETATM    8  C   UNL     1       3.318  -3.127  -1.925  1.00  0.00     0.076 C 
BRANCH   8   9
HETATM    9  C   UNL     1       2.667  -4.292  -2.621  1.00  0.00     0.010 A 
HETATM   10  C   UNL     1       2.329  -5.444  -1.915  1.00  0.00     0.025 A 
HETATM   11  C   UNL     1       1.820  -6.537  -2.611  1.00  0.00     0.003 A 
HETATM   12  C   UNL     1       1.650  -6.449  -3.987  1.00  0.00     0.017 A 
HETATM   13  C   UNL     1       1.986  -5.259  -4.609  1.00  0.00     0.088 A 
HETATM   14  N   UNL     1       2.488  -4.185  -3.961  1.00  0.00    -0.369 N 
ATOM     15  HN  UNL     1       2.723  -3.327  -4.460  1.00  0.00     0.165 HD
ENDBRANCH   8   9
ENDBRANCH   7   8
ENDBRANCH   3   7
BRANCH   4  16
HETATM   16  C   UNL     1       2.646   2.066   1.224  1.00  0.00     0.130 C 
BRANCH  16  17
HETATM   17  C   UNL     1       2.449   1.836   2.728  1.00  0.00     0.018 C 
HETATM   18  C   UNL     1       3.730   1.388   3.464  1.00  0.00     0.022 C 
HETATM   19  C   UNL     1       3.376   0.499   4.658  1.00  0.00     0.141 C 
HETATM   20  S   UNL     1       1.606   0.428   4.760  1.00  0.00     0.144 S 
HETATM   21  O   UNL     1       1.200  -0.938   5.010  1.00  0.00    -0.228 OA
HETATM   22  O   UNL     1       1.155   1.531   5.587  1.00  0.00    -0.228 OA
HETATM   23  C   UNL     1       1.334   0.845   3.059  1.00  0.00     0.146 C 
ENDBRANCH  16  17
ENDBRANCH   4  16
TORSDOF 5
