REMARK  4 active torsions:
REMARK  status: ('A' for Active; 'I' for Inactive)
REMARK    1  A    between atoms: C_2  and  C_4 
REMARK       I    between atoms: C_4  and  N_6 
REMARK    2  A    between atoms: N_6  and  C_7 
REMARK    3  A    between atoms: C_10  and  C_11 
REMARK    4  A    between atoms: C_11  and  C_12 
REMARK       I    between atoms: C_12  and  N_14 
ROOT
HETATM    1  C   UNL     1       4.827   1.020  -2.746  1.00  0.00     0.151 A 
HETATM    2  N   UNL     1       4.227   1.641  -3.726  1.00  0.00    -0.339 N 
ATOM      3  HN  UNL     1       3.247   1.923  -3.723  1.00  0.00     0.168 HD
HETATM    4  C   UNL     1       5.112   1.862  -4.771  1.00  0.00     0.026 A 
HETATM    5  C   UNL     1       6.391   1.387  -4.535  1.00  0.00     0.078 A 
HETATM    6  S   UNL     1       6.483   0.686  -2.969  1.00  0.00    -0.064 SA
ENDROOT
BRANCH   1   7
HETATM    7  N   UNL     1       4.308   0.602  -1.553  1.00  0.00    -0.307 N 
HETATM    8  C   UNL     1       2.949   0.626  -1.313  1.00  0.00     0.227 C 
HETATM    9  O   UNL     1       2.079   0.939  -2.121  1.00  0.00    -0.273 OA
HETATM   10  H   UNL     1       4.949   0.188  -0.893  1.00  0.00     0.171 HD
BRANCH   8  11
HETATM   11  C   UNL     1       2.591   0.190   0.107  1.00  0.00     0.070 C 
HETATM   12  C   UNL     1       3.043   1.241   1.118  1.00  0.00     0.019 C 
HETATM   13  C   UNL     1       1.086  -0.049   0.233  1.00  0.00     0.019 C 
ENDBRANCH   8  11
ENDBRANCH   1   7
BRANCH   4  14
HETATM   14  C   UNL     1       4.588   2.601  -5.958  1.00  0.00     0.160 C 
BRANCH  14  15
HETATM   15  C   UNL     1       5.162   2.120  -7.273  1.00  0.00     0.221 C 
HETATM   16  O   UNL     1       6.358   2.158  -7.556  1.00  0.00    -0.273 OA
HETATM   17  N   UNL     1       4.258   1.643  -8.179  1.00  0.00    -0.370 N 
HETATM   18  H   UNL     1       3.293   1.451  -7.943  1.00  0.00     0.159 HD
HETATM   19  H   UNL     1       4.620   1.280  -9.052  1.00  0.00     0.159 HD
ENDBRANCH  14  15
ENDBRANCH   4  14
TORSDOF 4
