REMARK  4 active torsions:
REMARK  status: ('A' for Active; 'I' for Inactive)
REMARK    1  A    between atoms: C_2  and  C_5 
REMARK    2  A    between atoms: N_12  and  C_13 
REMARK    3  A    between atoms: C_13  and  C_14 
REMARK       I    between atoms: C_14  and  N_16 
REMARK    4  A    between atoms: N_16  and  C_17 
ROOT
HETATM    1  C   UNL     1       1.378   0.692   2.074  1.00  0.00     0.123 A 
HETATM    2  N   UNL     1       0.197   1.114   2.505  1.00  0.00    -0.271 N 
ATOM      3  HN  UNL     1      -0.711   0.718   2.260  1.00  0.00     0.190 HD
HETATM    4  N   UNL     1       0.416   2.173   3.334  1.00  0.00    -0.227 N 
ATOM      5  HN  UNL     1      -0.317   2.697   3.812  1.00  0.00     0.210 HD
HETATM    6  N   UNL     1       1.706   2.428   3.433  1.00  0.00    -0.224 N 
ATOM      7  HN  UNL     1       2.148   3.170   3.976  1.00  0.00     0.210 HD
HETATM    8  N   UNL     1       2.321   1.502   2.665  1.00  0.00    -0.254 N 
ENDROOT
BRANCH   8   9
HETATM    9  C   UNL     1       3.761   1.523   2.659  1.00  0.00     0.254 C 
BRANCH   9  10
HETATM   10  C   UNL     1       4.327   2.413   1.575  1.00  0.00     0.237 C 
HETATM   11  O   UNL     1       5.150   1.978   0.771  1.00  0.00    -0.272 OA
HETATM   12  N   UNL     1       3.918   3.731   1.603  1.00  0.00    -0.355 N 
HETATM   13  H   UNL     1       3.198   4.002   2.271  1.00  0.00     0.162 HD
BRANCH  12  14
HETATM   14  C   UNL     1       4.374   4.761   0.660  1.00  0.00     0.084 C 
HETATM   15  C   UNL     1       4.042   4.376  -0.792  1.00  0.00     0.025 C 
HETATM   16  C   UNL     1       4.093   5.562  -1.751  1.00  0.00     0.002 C 
HETATM   17  C   UNL     1       5.466   5.832  -2.359  1.00  0.00     0.000 C 
HETATM   18  C   UNL     1       6.665   5.709  -1.424  1.00  0.00     0.000 C 
HETATM   19  C   UNL     1       6.425   6.210  -0.003  1.00  0.00     0.002 C 
HETATM   20  C   UNL     1       5.842   5.134   0.918  1.00  0.00     0.025 C 
ENDBRANCH  12  14
ENDBRANCH   9  10
ENDBRANCH   8   9
BRANCH   1  21
HETATM   21  C   UNL     1       1.513  -0.443   1.074  1.00  0.00     0.010 C 
HETATM   22  C   UNL     1       0.860   0.010  -0.250  1.00  0.00     0.023 C 
HETATM   23  C   UNL     1       0.731  -1.665   1.610  1.00  0.00     0.023 C 
HETATM   24  C   UNL     1       2.937  -0.910   0.767  1.00  0.00     0.023 C 
ENDBRANCH   1  21
TORSDOF 4
