REMARK  5 active torsions:
REMARK  status: ('A' for Active; 'I' for Inactive)
REMARK    1  A    between atoms: O_2  and  C_3 
REMARK    2  A    between atoms: C_3  and  C_4 
REMARK    3  A    between atoms: C_4  and  N_5 
REMARK    4  A    between atoms: N_5  and  C_6 
REMARK    5  A    between atoms: C_9  and  S_13 
ROOT
HETATM    1  C   UNL     1       3.832  -0.053   4.694  1.00  0.00     0.079 A 
HETATM    2  C   UNL     1       3.688  -0.391   6.040  1.00  0.00     0.043 A 
HETATM    3  C   UNL     1       4.563   0.141   6.987  1.00  0.00     0.028 A 
HETATM    4  C   UNL     1       5.592   0.964   6.551  1.00  0.00     0.074 A 
HETATM    5  C   UNL     1       5.732   1.187   5.196  1.00  0.00     0.112 A 
HETATM    6  N   UNL     1       4.855   0.719   4.272  1.00  0.00    -0.355 N 
ATOM      7  HN  UNL     1       4.966   0.945   3.284  1.00  0.00     0.166 HD
ENDROOT
BRANCH   1   8
HETATM    8  N   UNL     1       2.857  -0.500   3.802  1.00  0.00    -0.276 NA
HETATM    9  H   UNL     1       2.877  -1.512   3.694  1.00  0.00     0.129 HD
BRANCH   8  10
HETATM   10  C   UNL     1       2.705   0.224   2.537  1.00  0.00     0.132 C 
BRANCH  10  11
HETATM   11  C   UNL     1       2.902  -0.664   1.281  1.00  0.00     0.076 C 
HETATM   12  C   UNL     1       2.549   0.159   0.022  1.00  0.00     0.065 C 
HETATM   13  C   UNL     1       2.884  -0.611  -1.245  1.00  0.00     0.170 C 
HETATM   14  O   UNL     1       4.273  -0.932  -1.268  1.00  0.00    -0.391 OA
HETATM   15  C   UNL     1       4.635  -1.784  -0.179  1.00  0.00     0.170 C 
HETATM   16  C   UNL     1       4.376  -1.100   1.159  1.00  0.00     0.065 C 
BRANCH  11  17
HETATM   17  O   UNL     1       2.133  -1.887   1.364  1.00  0.00    -0.384 OA
HETATM   18  C   UNL     1       0.716  -1.763   1.389  1.00  0.00     0.202 C 
ENDBRANCH  11  17
ENDBRANCH  10  11
ENDBRANCH   8  10
ENDBRANCH   1   8
BRANCH   4  19
HETATM   19  S   UNL     1       6.718   1.701   7.684  1.00  0.00     0.173 S 
HETATM   20  O   UNL     1       6.668   0.931   8.912  1.00  0.00    -0.223 OA
HETATM   21  O   UNL     1       7.972   1.904   6.985  1.00  0.00    -0.223 OA
HETATM   22  C   UNL     1       6.004   3.293   8.011  1.00  0.00     0.167 C 
ENDBRANCH   4  19
TORSDOF 5
