REMARK  8 active torsions:
REMARK  status: ('A' for Active; 'I' for Inactive)
REMARK    1  A    between atoms: N_2  and  C_3 
REMARK    2  A    between atoms: N_4  and  C_12 
REMARK    3  A    between atoms: C_10  and  C_12 
REMARK    4  A    between atoms: C_10  and  O_24 
REMARK    5  A    between atoms: C_11  and  N_20 
REMARK    6  A    between atoms: N_20  and  C_28 
REMARK    7  A    between atoms: O_27  and  C_31 
REMARK    8  A    between atoms: C_28  and  C_31 
ROOT
HETATM    1  C   UNL     1       0.426  -0.744  -0.032  1.00  0.00     0.122 A 
HETATM    2  C   UNL     1      -0.738  -1.541  -0.131  1.00  0.00     0.135 A 
HETATM    3  N   UNL     1       1.535   1.141  -0.067  1.00  0.00    -0.324 N 
HETATM    4  C   UNL     1       0.264   0.633  -0.107  1.00  0.00     0.140 A 
HETATM    5  N   UNL     1       1.774  -1.060   0.063  1.00  0.00    -0.346 N 
ATOM      6  HN  UNL     1       2.188  -1.990   0.126  1.00  0.00     0.167 HD
HETATM    7  C   UNL     1       2.403   0.092   0.054  1.00  0.00     0.185 A 
HETATM    8  N   UNL     1      -1.931  -0.871  -0.195  1.00  0.00    -0.337 N 
ATOM      9  HN  UNL     1      -2.810  -1.388  -0.216  1.00  0.00     0.168 HD
HETATM   10  N   UNL     1      -0.883   1.320  -0.218  1.00  0.00    -0.336 N 
ATOM     11  HN  UNL     1      -0.949   2.336  -0.284  1.00  0.00     0.168 HD
HETATM   12  C   UNL     1      -1.936   0.478  -0.230  1.00  0.00     0.183 A 
ENDROOT
BRANCH   2  13
HETATM   13  N   UNL     1      -0.734  -2.928  -0.181  1.00  0.00    -0.359 N 
HETATM   14  C   UNL     1       0.401  -3.675  -0.765  1.00  0.00     0.115 C 
HETATM   15  C   UNL     1      -0.087  -5.194  -0.713  1.00  0.00     0.246 C 
HETATM   16  C   UNL     1       0.724  -3.151  -2.176  1.00  0.00     0.034 C 
HETATM   17  C   UNL     1      -1.594  -5.070  -0.351  1.00  0.00     0.057 C 
HETATM   18  C   UNL     1      -1.965  -3.607  -0.532  1.00  0.00     0.127 C 
BRANCH  15  19
HETATM   19  N   UNL     1       0.202  -6.084  -1.870  1.00  0.00     0.092 N 
HETATM   20  C   UNL     1       1.638  -6.251  -2.122  1.00  0.00     0.310 C 
BRANCH  19  21
HETATM   21  C   UNL     1      -0.424  -7.428  -1.795  1.00  0.00     0.298 C 
BRANCH  21  22
HETATM   22  C   UNL     1       0.090  -8.392  -0.709  1.00  0.00     0.194 C 
BRANCH  22  23
HETATM   23  O   UNL     1      -0.598  -9.637  -0.805  1.00  0.00    -0.399 OA
HETATM   24  H   UNL     1      -0.165 -10.246  -0.182  1.00  0.00     0.209 HD
ENDBRANCH  22  23
ENDBRANCH  21  22
ENDBRANCH  19  21
ENDBRANCH  15  19
ENDBRANCH   2  13
BRANCH   3  25
HETATM   25  C   UNL     1       1.900   2.542  -0.053  1.00  0.00     0.172 C 
BRANCH  25  26
HETATM   26  C   UNL     1       2.107   3.187  -1.434  1.00  0.00     0.102 C 
HETATM   27  C   UNL     1       3.204   2.556  -2.321  1.00  0.00     0.153 C 
HETATM   28  O   UNL     1       3.823   3.637  -3.065  1.00  0.00    -0.383 OA
HETATM   29  C   UNL     1       2.742   1.523  -3.335  1.00  0.00     0.042 C 
HETATM   30  C   UNL     1       3.236   4.871  -2.638  1.00  0.00     0.171 C 
HETATM   31  C   UNL     1       2.662   4.598  -1.267  1.00  0.00     0.068 C 
BRANCH  26  32
HETATM   32  O   UNL     1       0.859   3.330  -2.127  1.00  0.00    -0.385 OA
HETATM   33  H   UNL     1       0.364   2.490  -2.083  1.00  0.00     0.210 HD
ENDBRANCH  26  32
ENDBRANCH  25  26
ENDBRANCH   3  25
TORSDOF 8
