REMARK  4 active torsions:
REMARK  status: ('A' for Active; 'I' for Inactive)
REMARK       I    between atoms: N_2  and  C_3 
REMARK    1  A    between atoms: C_3  and  C_5 
REMARK    2  A    between atoms: C_5  and  N_6 
REMARK    3  A    between atoms: C_9  and  N_12 
REMARK       I    between atoms: N_12  and  C_13 
REMARK       I    between atoms: C_13  and  N_15 
REMARK    4  A    between atoms: N_15  and  C_16 
ROOT
HETATM    1  N   UNL     1       6.964  -4.812   1.982  1.00  0.00    -0.338 N 
HETATM    2  C   UNL     1       8.146  -5.473   1.720  1.00  0.00     0.321 C 
HETATM    3  O   UNL     1       8.753  -5.356   0.665  1.00  0.00    -0.247 OA
HETATM    4  N   UNL     1       8.468  -6.326   2.759  1.00  0.00    -0.309 N 
HETATM    5  H   UNL     1       6.851  -4.523   2.949  1.00  0.00     0.164 HD
HETATM    6  H   UNL     1       7.655  -6.691   3.235  1.00  0.00     0.170 HD
ENDROOT
BRANCH   1   7
HETATM    7  C   UNL     1       6.350  -3.979   0.950  1.00  0.00     0.089 C 
HETATM    8  C   UNL     1       7.044  -2.623   0.805  1.00  0.00     0.055 C 
HETATM    9  C   UNL     1       6.677  -1.675   1.944  1.00  0.00     0.275 C 
HETATM   10  N   UNL     1       5.227  -1.498   2.159  1.00  0.00     0.097 N 
HETATM   11  C   UNL     1       4.572  -2.805   2.330  1.00  0.00     0.275 C 
HETATM   12  C   UNL     1       4.852  -3.805   1.206  1.00  0.00     0.055 C 
BRANCH  10  13
HETATM   13  C   UNL     1       4.570  -0.722   1.071  1.00  0.00     0.374 C 
BRANCH  13  14
HETATM   14  C   UNL     1       5.059   0.730   1.014  1.00  0.00     0.245 C 
HETATM   15  N   UNL     1       5.361   1.274   2.244  1.00  0.00    -0.364 N 
HETATM   16  C   UNL     1       5.992   2.562   2.344  1.00  0.00     0.149 C 
HETATM   17  H   UNL     1       5.452   0.601   3.000  1.00  0.00     0.161 HD
HETATM   18  O   UNL     1       5.127   1.356  -0.040  1.00  0.00    -0.272 OA
ENDBRANCH  13  14
ENDBRANCH  10  13
ENDBRANCH   1   7
BRANCH   4  19
HETATM   19  C   UNL     1       9.583  -7.182   2.662  1.00  0.00     0.038 A 
HETATM   20  C   UNL     1      10.817  -6.724   2.209  1.00  0.00     0.046 A 
HETATM   21  C   UNL     1      11.843  -7.642   2.071  1.00  0.00     0.090 A 
HETATM   22  N   UNL     1      11.712  -8.957   2.346  1.00  0.00    -0.375 N 
HETATM   23  C   UNL     1      10.507  -9.368   2.794  1.00  0.00     0.090 A 
ATOM     24  HN  UNL     1      12.487  -9.609   2.221  1.00  0.00     0.164 HD
HETATM   25  C   UNL     1       9.429  -8.523   3.000  1.00  0.00     0.046 A 
ENDBRANCH   4  19
TORSDOF 4
