REMARK  4 active torsions:
REMARK  status: ('A' for Active; 'I' for Inactive)
REMARK    1  A    between atoms: C_4  and  N_5 
REMARK       I    between atoms: N_5  and  C_6 
REMARK       I    between atoms: C_6  and  N_8 
REMARK    2  A    between atoms: N_8  and  C_9 
REMARK    3  A    between atoms: C_9  and  C_10 
REMARK    4  A    between atoms: C_9  and  C_13 
ROOT
HETATM    1  N   UNL     1       5.130   2.742  -0.694  1.00  0.00    -0.309 N 
HETATM    2  C   UNL     1       4.437   3.934  -0.626  1.00  0.00     0.321 C 
HETATM    3  O   UNL     1       3.221   4.058  -0.593  1.00  0.00    -0.247 OA
HETATM    4  N   UNL     1       5.277   5.020  -0.575  1.00  0.00    -0.338 N 
HETATM    5  H   UNL     1       6.127   2.802  -0.837  1.00  0.00     0.170 HD
HETATM    6  H   UNL     1       6.239   4.914  -0.846  1.00  0.00     0.164 HD
ENDROOT
BRANCH   1   7
HETATM    7  C   UNL     1       4.557   1.449  -0.708  1.00  0.00     0.039 A 
HETATM    8  C   UNL     1       3.215   1.210  -0.418  1.00  0.00     0.054 A 
HETATM    9  C   UNL     1       2.716  -0.085  -0.500  1.00  0.00     0.007 A 
HETATM   10  C   UNL     1       1.260  -0.343  -0.255  1.00  0.00     0.068 C 
HETATM   11  N   UNL     1       3.488  -1.141  -0.840  1.00  0.00    -0.369 N 
HETATM   12  C   UNL     1       4.791  -0.894  -1.090  1.00  0.00     0.090 A 
ATOM     13  HN  UNL     1       3.103  -2.083  -0.905  1.00  0.00     0.165 HD
HETATM   14  C   UNL     1       5.369   0.364  -1.032  1.00  0.00     0.046 A 
ENDBRANCH   1   7
BRANCH   4  15
HETATM   15  C   UNL     1       4.734   6.364  -0.538  1.00  0.00     0.094 C 
BRANCH  15  16
HETATM   16  C   UNL     1       5.657   7.224   0.286  1.00  0.00     0.009 A 
HETATM   17  C   UNL     1       5.914   6.902   1.740  1.00  0.00     0.007 A 
HETATM   18  C   UNL     1       5.093   8.105   1.378  1.00  0.00     0.007 A 
ENDBRANCH  15  16
BRANCH  15  19
HETATM   19  C   UNL     1       4.606   6.876  -1.951  1.00  0.00     0.009 A 
HETATM   20  C   UNL     1       3.988   8.225  -2.238  1.00  0.00     0.007 A 
HETATM   21  C   UNL     1       3.247   6.972  -2.606  1.00  0.00     0.007 A 
ENDBRANCH  15  19
ENDBRANCH   4  15
TORSDOF 4
