REMARK  3 active torsions:
REMARK  status: ('A' for Active; 'I' for Inactive)
REMARK    1  A    between atoms: C_5  and  O_6 
REMARK    2  A    between atoms: C_5  and  C_7 
REMARK    3  A    between atoms: C_7  and  N_8 
ROOT
HETATM    1  C   UNL     1       4.779  -0.745  -2.787  1.00  0.00     0.190 C 
ENDROOT
BRANCH   1   2
HETATM    2  C   UNL     1       3.229  -0.710  -2.707  1.00  0.00     0.076 C 
HETATM    3  C   UNL     1       2.672   0.678  -2.353  1.00  0.00     0.040 C 
HETATM    4  C   UNL     1       2.968   1.085  -0.911  1.00  0.00     0.007 C 
HETATM    5  C   UNL     1       2.498   0.041   0.114  1.00  0.00    -0.019 C 
HETATM    6  C   UNL     1       0.973   0.049   0.264  1.00  0.00     0.010 C 
HETATM    7  C   UNL     1       3.015  -1.361  -0.240  1.00  0.00     0.007 C 
HETATM    8  C   UNL     1       2.729  -1.752  -1.689  1.00  0.00     0.040 C 
BRANCH   2   9
HETATM    9  O   UNL     1       2.681  -1.086  -3.981  1.00  0.00    -0.388 OA
HETATM   10  H   UNL     1       3.277  -0.680  -4.648  1.00  0.00     0.210 HD
ENDBRANCH   2   9
ENDBRANCH   1   2
BRANCH   1  11
HETATM   11  N   UNL     1       5.354   0.138  -3.810  1.00  0.00    -0.255 N 
HETATM   12  N   UNL     1       4.990  -0.124  -5.117  1.00  0.00    -0.300 N 
HETATM   13  C   UNL     1       5.608   0.520  -6.057  1.00  0.00     0.022 A 
ATOM     14  HN  UNL     1       4.259  -0.802  -5.335  1.00  0.00     0.187 HD
HETATM   15  C   UNL     1       5.212   0.257  -7.487  1.00  0.00     0.069 C 
HETATM   16  C   UNL     1       6.699   1.484  -5.829  1.00  0.00     0.031 A 
HETATM   17  C   UNL     1       7.020   1.744  -4.560  1.00  0.00     0.078 A 
HETATM   18  C   UNL     1       6.326   1.064  -3.448  1.00  0.00     0.262 A 
HETATM   19  O   UNL     1       6.661   1.329  -2.297  1.00  0.00    -0.267 OA
ENDBRANCH   1  11
TORSDOF 3
