REMARK  4 active torsions:
REMARK  status: ('A' for Active; 'I' for Inactive)
REMARK    1  A    between atoms: C_6  and  N_7 
REMARK       I    between atoms: N_7  and  C_8 
REMARK       I    between atoms: C_8  and  N_10 
REMARK    2  A    between atoms: N_10  and  C_11 
REMARK    3  A    between atoms: C_11  and  C_12 
REMARK    4  A    between atoms: C_12  and  C_13 
REMARK       I    between atoms: C_13  and  N_15 
ROOT
HETATM    1  N   UNL     1       2.810  -6.007   2.715  1.00  0.00    -0.295 N 
HETATM    2  C   UNL     1       3.836  -5.781   1.834  1.00  0.00     0.321 C 
HETATM    3  O   UNL     1       4.865  -5.225   2.211  1.00  0.00    -0.247 OA
HETATM    4  N   UNL     1       3.626  -6.175   0.555  1.00  0.00    -0.342 N 
HETATM    5  H   UNL     1       2.991  -5.662   3.643  1.00  0.00     0.172 HD
HETATM    6  H   UNL     1       2.814  -6.777   0.411  1.00  0.00     0.164 HD
ENDROOT
BRANCH   4   7
HETATM    7  C   UNL     1       4.560  -6.078  -0.539  1.00  0.00     0.133 C 
BRANCH   7   8
HETATM    8  C   UNL     1       5.523  -7.258  -0.607  1.00  0.00     0.122 C 
BRANCH   8   9
HETATM    9  C   UNL     1       4.846  -8.581  -0.954  1.00  0.00     0.221 C 
HETATM   10  O   UNL     1       3.634  -8.652  -1.167  1.00  0.00    -0.273 OA
HETATM   11  N   UNL     1       5.680  -9.703  -1.030  1.00  0.00    -0.352 N 
HETATM   12  C   UNL     1       7.136  -9.646  -0.879  1.00  0.00     0.125 C 
HETATM   13  C   UNL     1       5.087 -11.006  -1.345  1.00  0.00     0.125 C 
HETATM   14  C   UNL     1       7.570 -10.213   0.466  1.00  0.00     0.020 C 
HETATM   15  C   UNL     1       7.860 -11.711   0.420  1.00  0.00     0.002 C 
HETATM   16  C   UNL     1       6.916 -12.554  -0.439  1.00  0.00     0.002 C 
HETATM   17  C   UNL     1       5.448 -12.135  -0.371  1.00  0.00     0.020 C 
ENDBRANCH   8   9
ENDBRANCH   7   8
ENDBRANCH   4   7
BRANCH   1  18
HETATM   18  C   UNL     1       1.583  -6.628   2.451  1.00  0.00     0.109 A 
HETATM   19  C   UNL     1       0.641  -6.728   3.461  1.00  0.00     0.049 A 
HETATM   20  C   UNL     1      -0.578  -7.341   3.172  1.00  0.00     0.006 A 
HETATM   21  C   UNL     1      -0.818  -7.843   1.894  1.00  0.00     0.025 A 
HETATM   22  C   UNL     1       0.175  -7.712   0.938  1.00  0.00     0.007 A 
HETATM   23  C   UNL     1       0.028  -8.241  -0.454  1.00  0.00     0.068 C 
HETATM   24  N   UNL     1       1.355  -7.119   1.215  1.00  0.00    -0.346 N 
ATOM     25  HN  UNL     1       2.072  -7.042   0.493  1.00  0.00     0.167 HD
ENDBRANCH   1  18
TORSDOF 4
