REMARK  7 active torsions:
REMARK  status: ('A' for Active; 'I' for Inactive)
REMARK    1  A    between atoms: C_2  and  N_3 
REMARK    2  A    between atoms: C_2  and  C_23 
REMARK       I    between atoms: N_3  and  C_4 
REMARK    3  A    between atoms: C_4  and  C_6 
REMARK    4  A    between atoms: C_6  and  N_7 
REMARK    5  A    between atoms: C_11  and  C_12 
REMARK       I    between atoms: C_12  and  N_14 
REMARK    6  A    between atoms: N_14  and  C_16 
REMARK    7  A    between atoms: C_16  and  C_18 
ROOT
HETATM    1  N   UNL     1       2.793  -0.719  -4.838  1.00  0.00    -0.315 N 
HETATM    2  C   UNL     1       3.279  -2.012  -4.869  1.00  0.00     0.095 C 
HETATM    3  C   UNL     1       2.768  -2.906  -5.721  1.00  0.00     0.018 C 
HETATM    4  C   UNL     1       1.793  -2.495  -6.704  1.00  0.00     0.024 C 
HETATM    5  C   UNL     1       1.476  -1.199  -6.874  1.00  0.00     0.100 C 
HETATM    6  C   UNL     1       1.766  -0.302  -5.697  1.00  0.00     0.263 C 
HETATM    7  O   UNL     1       1.156   0.748  -5.502  1.00  0.00    -0.267 OA
ENDROOT
BRANCH   1   8
HETATM    8  C   UNL     1       3.220   0.185  -3.763  1.00  0.00     0.234 C 
BRANCH   8   9
HETATM    9  C   UNL     1       3.998   1.401  -4.299  1.00  0.00     0.236 C 
HETATM   10  N   UNL     1       3.273   2.234  -5.111  1.00  0.00    -0.355 N 
HETATM   11  H   UNL     1       2.279   2.029  -5.253  1.00  0.00     0.162 HD
HETATM   12  O   UNL     1       5.163   1.611  -3.979  1.00  0.00    -0.272 OA
BRANCH  10  13
HETATM   13  C   UNL     1       3.806   3.432  -5.714  1.00  0.00     0.084 C 
HETATM   14  C   UNL     1       3.623   4.632  -4.789  1.00  0.00     0.032 C 
BRANCH  13  15
HETATM   15  C   UNL     1       3.102   3.657  -7.031  1.00  0.00     0.008 A 
HETATM   16  C   UNL     1       3.147   2.620  -8.130  1.00  0.00     0.007 A 
HETATM   17  C   UNL     1       3.910   3.904  -8.282  1.00  0.00     0.007 A 
ENDBRANCH  13  15
ENDBRANCH  10  13
ENDBRANCH   8   9
ENDBRANCH   1   8
BRANCH   5  18
HETATM   18  C   UNL     1       0.713  -0.685  -8.059  1.00  0.00     0.259 C 
HETATM   19  O   UNL     1      -0.079   0.244  -7.892  1.00  0.00    -0.267 OA
HETATM   20  N   UNL     1       0.928  -1.221  -9.341  1.00  0.00    -0.347 N 
HETATM   21  C   UNL     1       2.000  -2.133  -9.744  1.00  0.00     0.153 C 
BRANCH  20  22
HETATM   22  C   UNL     1       0.029  -0.747 -10.423  1.00  0.00     0.087 C 
HETATM   23  C   UNL     1       0.707  -0.670 -11.804  1.00  0.00     0.033 C 
BRANCH  22  24
HETATM   24  C   UNL     1      -1.237  -1.586 -10.531  1.00  0.00     0.008 A 
HETATM   25  C   UNL     1      -2.183  -1.737  -9.361  1.00  0.00     0.007 A 
HETATM   26  C   UNL     1      -1.432  -2.934  -9.872  1.00  0.00     0.007 A 
ENDBRANCH  22  24
ENDBRANCH  20  22
ENDBRANCH   5  18
TORSDOF 7
