REMARK  5 active torsions:
REMARK  status: ('A' for Active; 'I' for Inactive)
REMARK       I    between atoms: N_1  and  C_2 
REMARK    1  A    between atoms: C_2  and  C_4 
REMARK    2  A    between atoms: C_4  and  O_5 
REMARK    3  A    between atoms: O_5  and  C_6 
REMARK    4  A    between atoms: N_8  and  C_10 
REMARK    5  A    between atoms: C_13  and  C_19 
ROOT
HETATM    1  C   UNL     1       5.304   0.095   5.666  1.00  0.00     0.125 A 
HETATM    2  N   UNL     1       5.752   1.290   6.135  1.00  0.00    -0.337 N 
ATOM      3  HN  UNL     1       5.775   2.101   5.517  1.00  0.00     0.167 HD
HETATM    4  C   UNL     1       6.171   1.409   7.429  1.00  0.00     0.118 A 
HETATM    5  C   UNL     1       6.160   0.326   8.300  1.00  0.00     0.036 A 
HETATM    6  C   UNL     1       5.691  -0.897   7.835  1.00  0.00     0.029 A 
HETATM    7  C   UNL     1       5.248  -1.019   6.510  1.00  0.00     0.088 A 
HETATM    8  C   UNL     1       4.715  -2.278   6.094  1.00  0.00     0.103 C 
HETATM    9  N   UNL     1       4.295  -3.315   5.783  1.00  0.00    -0.191 NA
ENDROOT
BRANCH   1  10
HETATM   10  N   UNL     1       4.875   0.067   4.329  1.00  0.00    -0.361 N 
HETATM   11  C   UNL     1       4.967  -0.973   3.351  1.00  0.00     0.158 C 
HETATM   12  C   UNL     1       5.234   0.092   2.278  1.00  0.00     0.158 C 
HETATM   13  C   UNL     1       4.961   1.130   3.375  1.00  0.00     0.158 C 
BRANCH  12  14
HETATM   14  O   UNL     1       4.358   0.078   1.122  1.00  0.00    -0.373 OA
BRANCH  14  15
HETATM   15  C   UNL     1       4.641   1.065   0.130  1.00  0.00     0.270 C 
BRANCH  15  16
HETATM   16  C   UNL     1       3.749   0.937  -1.104  1.00  0.00     0.239 C 
HETATM   17  N   UNL     1       2.879  -0.113  -1.088  1.00  0.00    -0.368 N 
HETATM   18  H   UNL     1       2.247  -0.247  -1.864  1.00  0.00     0.159 HD
HETATM   19  H   UNL     1       2.825  -0.713  -0.273  1.00  0.00     0.159 HD
HETATM   20  O   UNL     1       3.805   1.707  -2.058  1.00  0.00    -0.271 OA
ENDBRANCH  15  16
ENDBRANCH  14  15
ENDBRANCH  12  14
ENDBRANCH   1  10
BRANCH   4  21
HETATM   21  C   UNL     1       6.644   2.762   7.951  1.00  0.00     0.432 C 
HETATM   22  F   UNL     1       6.627   3.761   7.026  1.00  0.00    -0.165 F 
HETATM   23  F   UNL     1       5.885   3.205   8.996  1.00  0.00    -0.165 F 
HETATM   24  F   UNL     1       7.923   2.715   8.427  1.00  0.00    -0.165 F 
ENDBRANCH   4  21
TORSDOF 5
