REMARK  5 active torsions:
REMARK  status: ('A' for Active; 'I' for Inactive)
REMARK    1  A    between atoms: C_2  and  N_4 
REMARK    2  A    between atoms: C_7  and  N_10 
REMARK    3  A    between atoms: N_10  and  C_11 
REMARK    4  A    between atoms: C_11  and  C_12 
REMARK    5  A    between atoms: C_12  and  C_13 
ROOT
HETATM    1  N   UNL     1       5.892   3.023   1.186  1.00  0.00     0.088 N 
HETATM    2  H   UNL     1       5.368   2.893   2.053  1.00  0.00     0.316 HD
ENDROOT
BRANCH   1   3
HETATM    3  C   UNL     1       5.257   2.256   0.096  1.00  0.00     0.223 C 
HETATM    4  C   UNL     1       3.810   2.733  -0.124  1.00  0.00     0.066 C 
HETATM    5  C   UNL     1       2.821   2.169   0.901  1.00  0.00     0.275 C 
HETATM    6  N   UNL     1       2.881   0.701   1.060  1.00  0.00     0.092 N 
HETATM    7  C   UNL     1       4.265   0.330   1.402  1.00  0.00     0.275 C 
HETATM    8  C   UNL     1       5.268   0.737   0.322  1.00  0.00     0.066 C 
BRANCH   6   9
HETATM    9  C   UNL     1       2.328  -0.068  -0.084  1.00  0.00     0.215 C 
HETATM   10  C   UNL     1       2.445  -1.588   0.141  1.00  0.00     0.042 C 
HETATM   11  C   UNL     1       0.842   0.230  -0.339  1.00  0.00     0.042 C 
ENDBRANCH   6   9
ENDBRANCH   1   3
BRANCH   1  12
HETATM   12  C   UNL     1       7.303   2.682   1.435  1.00  0.00     0.274 C 
BRANCH  12  13
HETATM   13  C   UNL     1       8.216   2.908   0.219  1.00  0.00     0.069 C 
BRANCH  13  14
HETATM   14  C   UNL     1       9.628   2.431   0.457  1.00  0.00    -0.048 A 
HETATM   15  C   UNL     1       9.949   1.101   0.147  1.00  0.00     0.024 A 
HETATM   16  C   UNL     1      11.248   0.661   0.340  1.00  0.00     0.088 A 
HETATM   17  N   UNL     1      12.236   1.442   0.821  1.00  0.00    -0.375 N 
HETATM   18  C   UNL     1      11.905   2.717   1.122  1.00  0.00     0.094 A 
ATOM     19  HN  UNL     1      13.184   1.089   0.951  1.00  0.00     0.164 HD
HETATM   20  C   UNL     1      10.632   3.264   0.974  1.00  0.00    -0.040 A 
HETATM   21  C   UNL     1      10.385   4.699   1.328  1.00  0.00     0.050 C 
ENDBRANCH  13  14
ENDBRANCH  12  13
ENDBRANCH   1  12
TORSDOF 5
