REMARK  3 active torsions:
REMARK  status: ('A' for Active; 'I' for Inactive)
REMARK       I    between atoms: C_2  and  N_3 
REMARK       I    between atoms: C_2  and  N_13 
REMARK    1  A    between atoms: N_3  and  C_4 
REMARK    2  A    between atoms: C_4  and  C_5 
REMARK    3  A    between atoms: C_5  and  C_6 
ROOT
HETATM    1  O   UNL     1       1.555  -0.596   1.022  1.00  0.00    -0.247 OA
HETATM    2  C   UNL     1       2.262  -0.161   0.120  1.00  0.00     0.318 C 
HETATM    3  N   UNL     1       2.300   1.175  -0.202  1.00  0.00    -0.343 N 
HETATM    4  N   UNL     1       3.092  -0.963  -0.657  1.00  0.00    -0.332 N 
HETATM    5  C   UNL     1       3.849  -0.501  -1.829  1.00  0.00     0.137 C 
HETATM    6  C   UNL     1       3.584  -1.328  -3.082  1.00  0.00     0.095 C 
HETATM    7  S   UNL     1       4.055  -3.059  -2.836  1.00  0.00    -0.156 SA
HETATM    8  C   UNL     1       3.015  -3.425  -1.336  1.00  0.00     0.024 C 
HETATM    9  C   UNL     1       3.414  -4.834  -0.830  1.00  0.00     0.022 C 
HETATM   10  C   UNL     1       3.041  -5.964  -1.800  1.00  0.00     0.002 C 
HETATM   11  C   UNL     1       1.569  -5.920  -2.201  1.00  0.00     0.000 C 
HETATM   12  C   UNL     1       1.124  -4.539  -2.674  1.00  0.00     0.002 C 
HETATM   13  C   UNL     1       1.507  -3.444  -1.677  1.00  0.00     0.022 C 
HETATM   14  C   UNL     1       3.314  -2.361  -0.243  1.00  0.00     0.148 C 
HETATM   15  H   UNL     1       3.232   1.498  -0.408  1.00  0.00     0.164 HD
ENDROOT
BRANCH   3  16
HETATM   16  C   UNL     1       1.493   2.142   0.531  1.00  0.00     0.130 C 
BRANCH  16  17
HETATM   17  C   UNL     1       1.547   3.511  -0.144  1.00  0.00     0.076 C 
BRANCH  17  18
HETATM   18  C   UNL     1       0.791   4.557   0.628  1.00  0.00     0.010 A 
HETATM   19  C   UNL     1      -0.544   4.829   0.339  1.00  0.00     0.025 A 
HETATM   20  C   UNL     1      -1.201   5.816   1.070  1.00  0.00     0.003 A 
HETATM   21  C   UNL     1      -0.514   6.496   2.067  1.00  0.00     0.017 A 
HETATM   22  C   UNL     1       0.809   6.159   2.295  1.00  0.00     0.088 A 
HETATM   23  N   UNL     1       1.473   5.209   1.601  1.00  0.00    -0.369 N 
ATOM     24  HN  UNL     1       2.449   4.991   1.801  1.00  0.00     0.165 HD
ENDBRANCH  17  18
ENDBRANCH  16  17
ENDBRANCH   3  16
TORSDOF 3
