REMARK  5 active torsions:
REMARK  status: ('A' for Active; 'I' for Inactive)
REMARK    1  A    between atoms: C_7  and  C_15 
REMARK    2  A    between atoms: N_11  and  C_12 
REMARK    3  A    between atoms: C_12  and  C_13 
REMARK    4  A    between atoms: C_13  and  O_14 
REMARK    5  A    between atoms: C_15  and  O_17 
ROOT
HETATM    1  C   UNL     1       1.131  -0.030   0.024  1.00  0.00     0.089 C 
HETATM    2  C   UNL     1       2.617  -0.021   0.009  1.00  0.00     0.080 A 
HETATM    3  N   UNL     1       3.361   1.065  -0.009  1.00  0.00    -0.344 N 
ATOM      4  HN  UNL     1       3.036   2.032  -0.029  1.00  0.00     0.167 HD
HETATM    5  C   UNL     1       4.659   0.633   0.004  1.00  0.00     0.061 A 
HETATM    6  C   UNL     1       5.837   1.393   0.002  1.00  0.00     0.050 A 
HETATM    7  C   UNL     1       7.066   0.720   0.035  1.00  0.00     0.040 A 
HETATM    8  C   UNL     1       7.110  -0.682   0.028  1.00  0.00     0.021 A 
HETATM    9  C   UNL     1       5.938  -1.452   0.017  1.00  0.00     0.033 A 
HETATM   10  C   UNL     1       4.723  -0.756   0.016  1.00  0.00     0.062 A 
HETATM   11  N   UNL     1       3.403  -1.154   0.013  1.00  0.00    -0.333 N 
ENDROOT
BRANCH   7  12
HETATM   12  C   UNL     1       8.353   1.459   0.026  1.00  0.00     0.176 C 
HETATM   13  O   UNL     1       9.370   1.004  -0.467  1.00  0.00    -0.646 OA
BRANCH  12  14
HETATM   14  O   UNL     1       8.313   2.655   0.652  1.00  0.00    -0.773 OA
HETATM   15  H   UNL     1       7.494   2.844   1.146  1.00  0.00     0.167 HD
ENDBRANCH  12  14
ENDBRANCH   7  12
BRANCH  11  16
HETATM   16  C   UNL     1       2.930  -2.527   0.058  1.00  0.00     0.156 C 
BRANCH  16  17
HETATM   17  C   UNL     1       2.627  -3.103  -1.323  1.00  0.00     0.184 C 
BRANCH  17  18
HETATM   18  O   UNL     1       3.811  -3.285  -2.091  1.00  0.00    -0.399 OA
HETATM   19  H   UNL     1       4.080  -2.411  -2.432  1.00  0.00     0.209 HD
ENDBRANCH  17  18
ENDBRANCH  16  17
ENDBRANCH  11  16
TORSDOF 5
