REMARK  6 active torsions:
REMARK  status: ('A' for Active; 'I' for Inactive)
REMARK    1  A    between atoms: C_2  and  C_3 
REMARK    2  A    between atoms: C_3  and  C_4 
REMARK    3  A    between atoms: C_7  and  N_8 
REMARK       I    between atoms: N_8  and  C_9 
REMARK       I    between atoms: C_9  and  N_11 
REMARK    4  A    between atoms: N_11  and  C_12 
REMARK    5  A    between atoms: C_12  and  C_13 
REMARK    6  A    between atoms: C_17  and  O_18 
ROOT
HETATM    1  N   UNL     1       7.654   0.741   1.215  1.00  0.00    -0.289 N 
HETATM    2  C   UNL     1       7.406   2.076   1.056  1.00  0.00     0.322 C 
HETATM    3  O   UNL     1       6.254   2.477   0.914  1.00  0.00    -0.247 OA
HETATM    4  N   UNL     1       8.487   2.901   1.126  1.00  0.00    -0.342 N 
HETATM    5  H   UNL     1       6.850   0.134   1.266  1.00  0.00     0.172 HD
HETATM    6  H   UNL     1       9.399   2.453   1.160  1.00  0.00     0.164 HD
ENDROOT
BRANCH   1   7
HETATM    7  C   UNL     1       8.902   0.206   1.362  1.00  0.00     0.152 A 
HETATM    8  S   UNL     1       8.986  -1.431   1.805  1.00  0.00    -0.064 SA
HETATM    9  C   UNL     1      10.703  -1.296   1.863  1.00  0.00     0.078 A 
HETATM   10  C   UNL     1      11.091  -0.022   1.484  1.00  0.00     0.018 A 
HETATM   11  N   UNL     1      10.043   0.834   1.217  1.00  0.00    -0.340 N 
ATOM     12  HN  UNL     1      10.142   1.812   0.946  1.00  0.00     0.168 HD
BRANCH  10  13
HETATM   13  C   UNL     1      12.482   0.501   1.315  1.00  0.00     0.057 C 
BRANCH  13  14
HETATM   14  C   UNL     1      12.741   1.758   2.147  1.00  0.00     0.002 C 
HETATM   15  C   UNL     1      14.157   2.276   1.949  1.00  0.00     0.005 C 
ENDBRANCH  13  14
ENDBRANCH  10  13
ENDBRANCH   1   7
BRANCH   4  16
HETATM   16  C   UNL     1       8.446   4.340   1.097  1.00  0.00     0.129 C 
BRANCH  16  17
HETATM   17  C   UNL     1       9.088   4.936   2.364  1.00  0.00     0.006 C 
HETATM   18  C   UNL     1       8.318   4.592   3.655  1.00  0.00     0.006 C 
HETATM   19  C   UNL     1       7.001   5.353   3.805  1.00  0.00     0.003 C 
HETATM   20  C   UNL     1       7.173   6.856   3.600  1.00  0.00     0.032 C 
HETATM   21  C   UNL     1       7.880   7.165   2.281  1.00  0.00     0.118 C 
HETATM   22  C   UNL     1       9.234   6.457   2.222  1.00  0.00     0.038 C 
BRANCH  21  23
HETATM   23  O   UNL     1       8.064   8.564   2.140  1.00  0.00    -0.396 OA
HETATM   24  H   UNL     1       8.655   8.868   2.849  1.00  0.00     0.210 HD
ENDBRANCH  21  23
ENDBRANCH  16  17
ENDBRANCH   4  16
TORSDOF 6
