REMARK  4 active torsions:
REMARK  status: ('A' for Active; 'I' for Inactive)
REMARK    1  A    between atoms: O_2  and  C_3 
REMARK    2  A    between atoms: C_3  and  C_6 
REMARK       I    between atoms: C_6  and  N_8 
REMARK    3  A    between atoms: N_8  and  C_9 
REMARK    4  A    between atoms: C_15  and  O_16 
ROOT
HETATM    1  C   UNL     1       6.616   1.056  -2.211  1.00  0.00     0.070 A 
HETATM    2  C   UNL     1       7.455   0.718  -1.153  1.00  0.00     0.049 A 
HETATM    3  C   UNL     1       8.820   0.893  -1.308  1.00  0.00     0.090 A 
HETATM    4  N   UNL     1       9.397   1.376  -2.430  1.00  0.00    -0.372 N 
ATOM      5  HN  UNL     1      10.406   1.504  -2.503  1.00  0.00     0.164 HD
HETATM    6  C   UNL     1       8.565   1.681  -3.451  1.00  0.00     0.126 A 
HETATM    7  C   UNL     1       7.189   1.522  -3.394  1.00  0.00     0.107 A 
ENDROOT
BRANCH   1   8
HETATM    8  N   UNL     1       5.210   0.951  -2.153  1.00  0.00    -0.322 N 
HETATM    9  C   UNL     1       4.441   0.706  -1.028  1.00  0.00     0.256 C 
HETATM   10  O   UNL     1       4.875   0.508   0.104  1.00  0.00    -0.270 OA
HETATM   11  H   UNL     1       4.719   1.233  -2.999  1.00  0.00     0.169 HD
BRANCH   9  12
HETATM   12  C   UNL     1       2.915   0.700  -1.323  1.00  0.00     0.133 C 
HETATM   13  C   UNL     1       2.123   0.670  -0.007  1.00  0.00     0.056 C 
HETATM   14  C   UNL     1       2.594  -0.584  -2.103  1.00  0.00     0.056 C 
BRANCH  12  15
HETATM   15  O   UNL     1       2.504   1.789  -2.162  1.00  0.00    -0.376 OA
HETATM   16  C   UNL     1       2.752   3.089  -1.635  1.00  0.00     0.203 C 
ENDBRANCH  12  15
ENDBRANCH   9  12
ENDBRANCH   1   8
BRANCH   7  17
HETATM   17  O   UNL     1       6.379   1.804  -4.460  1.00  0.00    -0.357 OA
HETATM   18  H   UNL     1       6.918   1.750  -5.269  1.00  0.00     0.217 HD
ENDBRANCH   7  17
TORSDOF 4
