REMARK  2 active torsions:
REMARK  status: ('A' for Active; 'I' for Inactive)
REMARK       I    between atoms: C_2  and  N_4 
REMARK    1  A    between atoms: C_7  and  N_10 
REMARK       I    between atoms: N_10  and  C_11 
REMARK       I    between atoms: C_11  and  N_13 
REMARK    2  A    between atoms: N_13  and  C_14 
ROOT
HETATM    1  N   UNL     1       5.458   4.024  -1.166  1.00  0.00    -0.338 N 
HETATM    2  C   UNL     1       6.270   4.672  -2.082  1.00  0.00     0.322 C 
HETATM    3  O   UNL     1       5.829   5.105  -3.139  1.00  0.00    -0.247 OA
HETATM    4  N   UNL     1       7.552   4.795  -1.606  1.00  0.00    -0.289 N 
HETATM    5  H   UNL     1       5.905   3.306  -0.615  1.00  0.00     0.164 HD
HETATM    6  H   UNL     1       7.727   4.658  -0.626  1.00  0.00     0.172 HD
ENDROOT
BRANCH   1   7
HETATM    7  C   UNL     1       4.030   3.887  -1.449  1.00  0.00     0.089 C 
HETATM    8  C   UNL     1       3.220   3.711  -0.165  1.00  0.00     0.045 C 
HETATM    9  C   UNL     1       3.378   2.323   0.440  1.00  0.00     0.127 C 
HETATM   10  N   UNL     1       3.164   1.264  -0.544  1.00  0.00    -0.352 N 
HETATM   11  C   UNL     1       2.645   0.055  -0.089  1.00  0.00     0.215 C 
HETATM   12  C   UNL     1       3.915   1.385  -1.794  1.00  0.00     0.127 C 
HETATM   13  C   UNL     1       2.464  -1.038  -1.113  1.00  0.00     0.117 C 
HETATM   14  O   UNL     1       2.314  -0.129   1.082  1.00  0.00    -0.274 OA
HETATM   15  C   UNL     1       3.739   2.753  -2.435  1.00  0.00     0.045 C 
ENDBRANCH   1   7
BRANCH   4  16
HETATM   16  C   UNL     1       8.486   5.512  -2.305  1.00  0.00     0.152 A 
HETATM   17  N   UNL     1       8.471   5.895  -3.554  1.00  0.00    -0.346 N 
HETATM   18  C   UNL     1       9.568   6.691  -3.804  1.00  0.00     0.097 A 
ATOM     19  HN  UNL     1       7.758   5.644  -4.238  1.00  0.00     0.167 HD
HETATM   20  C   UNL     1      10.420   6.873  -2.736  1.00  0.00     0.070 A 
HETATM   21  S   UNL     1       9.843   5.987  -1.382  1.00  0.00    -0.064 SA
ENDBRANCH   4  16
TORSDOF 2
