REMARK  4 active torsions:
REMARK  status: ('A' for Active; 'I' for Inactive)
REMARK    1  A    between atoms: C_2  and  O_3 
REMARK    2  A    between atoms: O_3  and  C_4 
REMARK    3  A    between atoms: C_8  and  N_9 
REMARK       I    between atoms: N_9  and  C_10 
REMARK    4  A    between atoms: C_10  and  C_12 
ROOT
HETATM    1  C   UNL     1       4.465   0.794  -1.441  1.00  0.00     0.143 A 
HETATM    2  C   UNL     1       5.089   2.022  -1.402  1.00  0.00     0.056 A 
HETATM    3  C   UNL     1       6.477   2.049  -1.487  1.00  0.00     0.008 A 
HETATM    4  C   UNL     1       7.181   0.845  -1.588  1.00  0.00     0.049 A 
HETATM    5  C   UNL     1       6.471  -0.348  -1.608  1.00  0.00     0.109 A 
HETATM    6  N   UNL     1       5.133  -0.371  -1.537  1.00  0.00    -0.323 N 
ATOM      7  HN  UNL     1       4.629  -1.257  -1.555  1.00  0.00     0.169 HD
ENDROOT
BRANCH   5   8
HETATM    8  N   UNL     1       7.175  -1.554  -1.716  1.00  0.00    -0.311 N 
HETATM    9  C   UNL     1       6.586  -2.806  -1.743  1.00  0.00     0.252 C 
HETATM   10  O   UNL     1       5.389  -3.071  -1.673  1.00  0.00    -0.270 OA
HETATM   11  H   UNL     1       8.189  -1.534  -1.732  1.00  0.00     0.170 HD
BRANCH   9  12
HETATM   12  C   UNL     1       7.617  -3.917  -1.988  1.00  0.00     0.213 C 
HETATM   13  C   UNL     1       7.210  -5.237  -1.344  1.00  0.00     0.044 C 
HETATM   14  C   UNL     1       8.496  -5.819  -0.802  1.00  0.00     0.029 C 
HETATM   15  C   UNL     1       9.574  -4.866  -1.261  1.00  0.00     0.168 C 
HETATM   16  O   UNL     1       8.929  -3.611  -1.501  1.00  0.00    -0.376 OA
ENDBRANCH   9  12
ENDBRANCH   5   8
BRANCH   1  17
HETATM   17  O   UNL     1       3.088   0.776  -1.374  1.00  0.00    -0.336 OA
BRANCH  17  18
HETATM   18  C   UNL     1       2.555  -0.479  -1.822  1.00  0.00     0.173 C 
HETATM   19  C   UNL     1       1.042  -0.426  -1.720  1.00  0.00     0.034 C 
ENDBRANCH  17  18
ENDBRANCH   1  17
TORSDOF 4
