REMARK  5 active torsions:
REMARK  status: ('A' for Active; 'I' for Inactive)
REMARK    1  A    between atoms: C_2  and  N_3 
REMARK    2  A    between atoms: C_2  and  C_12 
REMARK    3  A    between atoms: N_3  and  C_4 
REMARK    4  A    between atoms: C_4  and  C_5 
REMARK    5  A    between atoms: C_5  and  N_6 
REMARK       I    between atoms: C_12  and  N_14 
REMARK       I    between atoms: N_17  and  C_20 
ROOT
HETATM    1  C   UNL     1       0.861   0.104  -0.018  1.00  0.00     0.053 C 
HETATM    2  C   UNL     1       2.387  -0.004  -0.009  1.00  0.00     0.307 C 
ENDROOT
BRANCH   2   3
HETATM    3  N   UNL     1       2.906  -1.283  -0.560  1.00  0.00     0.098 N 
HETATM    4  H   UNL     1       2.524  -2.037   0.014  1.00  0.00     0.317 HD
BRANCH   3   5
HETATM    5  C   UNL     1       2.512  -1.546  -1.961  1.00  0.00     0.292 C 
BRANCH   5   6
HETATM    6  C   UNL     1       3.032  -2.914  -2.422  1.00  0.00     0.178 C 
BRANCH   6   7
HETATM    7  N   UNL     1       2.646  -3.222  -3.786  1.00  0.00    -0.302 N 
HETATM    8  C   UNL     1       3.358  -2.955  -4.920  1.00  0.00     0.111 A 
HETATM    9  C   UNL     1       2.632  -3.482  -5.962  1.00  0.00     0.037 A 
HETATM   10  C   UNL     1       1.500  -4.054  -5.352  1.00  0.00     0.108 A 
HETATM   11  N   UNL     1       1.502  -3.897  -4.025  1.00  0.00    -0.310 N 
ATOM     12  HN  UNL     1       0.804  -4.213  -3.352  1.00  0.00     0.186 HD
ENDBRANCH   6   7
ENDBRANCH   5   6
ENDBRANCH   3   5
ENDBRANCH   2   3
BRANCH   2  13
HETATM   13  C   UNL     1       3.024   1.239  -0.679  1.00  0.00     0.253 C 
HETATM   14  O   UNL     1       2.454   1.805  -1.617  1.00  0.00    -0.271 OA
HETATM   15  N   UNL     1       4.214   1.732  -0.156  1.00  0.00    -0.347 N 
HETATM   16  C   UNL     1       5.061   1.075   0.849  1.00  0.00     0.145 C 
HETATM   17  C   UNL     1       4.634   3.103  -0.486  1.00  0.00     0.145 C 
HETATM   18  C   UNL     1       5.136   1.926   2.130  1.00  0.00     0.145 C 
HETATM   19  N   UNL     1       5.566   3.297   1.809  1.00  0.00    -0.349 N 
HETATM   20  C   UNL     1       4.722   3.957   0.796  1.00  0.00     0.145 C 
HETATM   21  C   UNL     1       6.704   3.946   2.249  1.00  0.00     0.215 C 
HETATM   22  O   UNL     1       6.981   5.091   1.880  1.00  0.00    -0.274 OA
HETATM   23  C   UNL     1       7.646   3.260   3.207  1.00  0.00     0.117 C 
ENDBRANCH   2  13
TORSDOF 5
