REMARK  3 active torsions:
REMARK  status: ('A' for Active; 'I' for Inactive)
REMARK    1  A    between atoms: C_2  and  C_5 
REMARK    2  A    between atoms: C_5  and  N_11 
REMARK       I    between atoms: N_11  and  C_12 
REMARK       I    between atoms: C_12  and  N_14 
REMARK    3  A    between atoms: N_14  and  C_15 
ROOT
HETATM    1  N   UNL     1       3.487   1.557  -1.641  1.00  0.00    -0.325 N 
HETATM    2  C   UNL     1       4.172   0.417  -2.006  1.00  0.00     0.323 C 
HETATM    3  O   UNL     1       4.290  -0.531  -1.250  1.00  0.00    -0.247 OA
HETATM    4  N   UNL     1       4.631   0.510  -3.296  1.00  0.00    -0.288 N 
HETATM    5  H   UNL     1       3.816   2.411  -2.068  1.00  0.00     0.165 HD
HETATM    6  H   UNL     1       4.149   1.099  -3.948  1.00  0.00     0.172 HD
ENDROOT
BRANCH   1   7
HETATM    7  C   UNL     1       2.783   1.666  -0.317  1.00  0.00     0.132 C 
HETATM    8  C   UNL     1       3.817   1.620   0.840  1.00  0.00     0.040 C 
HETATM    9  C   UNL     1       3.237   2.056   2.182  1.00  0.00     0.003 C 
HETATM   10  C   UNL     1       2.729   3.485   2.095  1.00  0.00     0.000 C 
HETATM   11  C   UNL     1       1.652   3.610   1.025  1.00  0.00     0.003 C 
HETATM   12  C   UNL     1       2.104   3.069  -0.335  1.00  0.00     0.040 C 
BRANCH   7  13
HETATM   13  C   UNL     1       1.703   0.529  -0.129  1.00  0.00     0.412 C 
HETATM   14  F   UNL     1       2.073  -0.415   0.764  1.00  0.00    -0.168 F 
HETATM   15  F   UNL     1       1.424  -0.100  -1.298  1.00  0.00    -0.168 F 
HETATM   16  F   UNL     1       0.520   1.031   0.307  1.00  0.00    -0.168 F 
ENDBRANCH   7  13
ENDBRANCH   1   7
BRANCH   4  17
HETATM   17  C   UNL     1       5.443  -0.474  -3.805  1.00  0.00     0.168 A 
HETATM   18  N   UNL     1       6.152  -1.379  -3.190  1.00  0.00    -0.279 N 
HETATM   19  N   UNL     1       6.838  -2.190  -4.076  1.00  0.00    -0.303 N 
ATOM     20  HN  UNL     1       6.196  -1.477  -2.176  1.00  0.00     0.189 HD
HETATM   21  C   UNL     1       6.603  -1.849  -5.323  1.00  0.00     0.160 A 
ATOM     22  HN  UNL     1       7.450  -2.957  -3.796  1.00  0.00     0.186 HD
HETATM   23  S   UNL     1       5.572  -0.489  -5.511  1.00  0.00    -0.046 SA
ENDBRANCH   4  17
TORSDOF 3
