REMARK  7 active torsions:
REMARK  status: ('A' for Active; 'I' for Inactive)
REMARK    1  A    between atoms: C_2  and  C_4 
REMARK    2  A    between atoms: C_8  and  O_9 
REMARK    3  A    between atoms: O_9  and  C_10 
REMARK    4  A    between atoms: C_10  and  C_11 
REMARK    5  A    between atoms: C_11  and  O_12 
REMARK    6  A    between atoms: C_11  and  C_13 
REMARK    7  A    between atoms: C_13  and  N_14 
ROOT
HETATM    1  C   UNL     1       0.651  -6.308  -0.137  1.00  0.00     0.160 C 
ENDROOT
BRANCH   1   2
HETATM    2  C   UNL     1       1.119  -4.842  -0.044  1.00  0.00     0.209 C 
BRANCH   2   3
HETATM    3  O   UNL     1       2.547  -4.816   0.023  1.00  0.00    -0.349 OA
BRANCH   3   4
HETATM    4  C   UNL     1       3.156  -3.593   0.099  1.00  0.00     0.069 A 
HETATM    5  C   UNL     1       4.550  -3.643   0.170  1.00  0.00     0.037 A 
HETATM    6  C   UNL     1       5.304  -2.471   0.237  1.00  0.00     0.004 A 
HETATM    7  C   UNL     1       4.666  -1.231   0.228  1.00  0.00     0.015 A 
HETATM    8  C   UNL     1       3.270  -1.166   0.160  1.00  0.00     0.012 A 
HETATM    9  C   UNL     1       2.517  -2.353   0.104  1.00  0.00     0.051 A 
BRANCH   8  10
HETATM   10  C   UNL     1       2.541   0.137   0.134  1.00  0.00     0.155 C 
HETATM   11  C   UNL     1       3.334   1.419   0.105  1.00  0.00     0.096 C 
HETATM   12  O   UNL     1       1.312   0.146   0.126  1.00  0.00    -0.293 OA
ENDBRANCH   8  10
ENDBRANCH   3   4
ENDBRANCH   2   3
ENDBRANCH   1   2
BRANCH   1  13
HETATM   13  O   UNL     1       1.055  -7.036   1.033  1.00  0.00    -0.392 OA
HETATM   14  H   UNL     1       0.947  -6.472   1.817  1.00  0.00     0.210 HD
ENDBRANCH   1  13
BRANCH   1  15
HETATM   15  C   UNL     1      -0.874  -6.367  -0.275  1.00  0.00     0.164 C 
BRANCH  15  16
HETATM   16  N   UNL     1      -1.384  -7.717  -0.432  1.00  0.00    -0.339 N 
HETATM   17  C   UNL     1      -1.749  -8.537   0.600  1.00  0.00     0.184 A 
HETATM   18  N   UNL     1      -2.245  -9.672   0.170  1.00  0.00    -0.350 N 
HETATM   19  C   UNL     1      -2.187  -9.591  -1.199  1.00  0.00     0.060 A 
ATOM     20  HN  UNL     1      -2.598 -10.447   0.731  1.00  0.00     0.166 HD
HETATM   21  C   UNL     1      -2.582 -10.534  -2.160  1.00  0.00     0.032 A 
HETATM   22  C   UNL     1      -1.651  -8.370  -1.610  1.00  0.00     0.062 A 
HETATM   23  C   UNL     1      -2.428 -10.217  -3.515  1.00  0.00     0.002 A 
HETATM   24  C   UNL     1      -1.892  -8.989  -3.904  1.00  0.00     0.002 A 
HETATM   25  C   UNL     1      -1.489  -8.036  -2.960  1.00  0.00     0.032 A 
ENDBRANCH  15  16
ENDBRANCH   1  15
TORSDOF 7
