REMARK  5 active torsions:
REMARK  status: ('A' for Active; 'I' for Inactive)
REMARK    1  A    between atoms: O_2  and  C_3 
REMARK    2  A    between atoms: C_6  and  N_7 
REMARK    3  A    between atoms: C_10  and  N_11 
REMARK    4  A    between atoms: C_17  and  C_18 
REMARK    5  A    between atoms: C_18  and  O_19 
ROOT
HETATM    1  C   UNL     1       2.975  -0.416  -1.163  1.00  0.00     0.156 A 
HETATM    2  N   UNL     1       2.876  -1.703  -1.523  1.00  0.00    -0.313 N 
ATOM      3  HN  UNL     1       2.362  -2.386  -0.966  1.00  0.00     0.170 HD
HETATM    4  C   UNL     1       3.488  -2.029  -2.648  1.00  0.00     0.158 A 
HETATM    5  N   UNL     1       4.196  -1.187  -3.390  1.00  0.00    -0.318 N 
ATOM      6  HN  UNL     1       4.651  -1.516  -4.242  1.00  0.00     0.170 HD
HETATM    7  C   UNL     1       4.314   0.106  -3.017  1.00  0.00     0.118 A 
HETATM    8  C   UNL     1       3.691   0.557  -1.846  1.00  0.00     0.060 A 
ENDROOT
BRANCH   7   9
HETATM    9  N   UNL     1       5.024   0.891  -3.892  1.00  0.00    -0.363 N 
HETATM   10  C   UNL     1       5.912   2.018  -3.614  1.00  0.00     0.150 C 
HETATM   11  C   UNL     1       5.365   3.253  -4.345  1.00  0.00     0.187 C 
HETATM   12  O   UNL     1       5.294   3.015  -5.763  1.00  0.00    -0.388 OA
HETATM   13  C   UNL     1       4.453   1.877  -6.052  1.00  0.00     0.187 C 
HETATM   14  C   UNL     1       4.938   0.601  -5.337  1.00  0.00     0.150 C 
ENDBRANCH   7   9
BRANCH   8  15
HETATM   15  C   UNL     1       3.713   2.002  -1.419  1.00  0.00     0.211 C 
BRANCH  15  16
HETATM   16  O   UNL     1       2.905   2.416  -0.318  1.00  0.00    -0.396 OA
HETATM   17  H   UNL     1       2.601   1.620   0.153  1.00  0.00     0.209 HD
ENDBRANCH  15  16
ENDBRANCH   8  15
BRANCH   4  18
HETATM   18  N   UNL     1       3.413  -3.346  -3.054  1.00  0.00    -0.274 NA
HETATM   19  H   UNL     1       3.244  -3.938  -2.251  1.00  0.00     0.127 HD
HETATM   20  H   UNL     1       4.219  -3.565  -3.625  1.00  0.00     0.127 HD
ENDBRANCH   4  18
BRANCH   1  21
HETATM   21  O   UNL     1       2.330  -0.046   0.007  1.00  0.00    -0.340 OA
HETATM   22  C   UNL     1       1.212  -0.878   0.310  1.00  0.00     0.211 C 
ENDBRANCH   1  21
TORSDOF 5
