REMARK  7 active torsions:
REMARK  status: ('A' for Active; 'I' for Inactive)
REMARK    1  A    between atoms: N_1  and  C_4 
REMARK    2  A    between atoms: N_3  and  C_12 
REMARK    3  A    between atoms: C_11  and  C_21 
REMARK    4  A    between atoms: C_17  and  C_24 
REMARK    5  A    between atoms: C_17  and  C_25 
REMARK    6  A    between atoms: C_24  and  O_26 
REMARK    7  A    between atoms: C_25  and  O_27 
ROOT
HETATM    1  C   UNL     1       3.816   1.404  -2.057  1.00  0.00     0.122 A 
HETATM    2  N   UNL     1       4.869   2.544  -3.591  1.00  0.00    -0.322 N 
HETATM    3  C   UNL     1       3.578   0.926  -0.749  1.00  0.00     0.135 A 
HETATM    4  C   UNL     1       4.898   2.261  -2.248  1.00  0.00     0.140 A 
HETATM    5  N   UNL     1       3.148   1.183  -3.249  1.00  0.00    -0.346 N 
ATOM      6  HN  UNL     1       2.325   0.600  -3.401  1.00  0.00     0.167 HD
HETATM    7  C   UNL     1       3.803   1.886  -4.141  1.00  0.00     0.185 A 
HETATM    8  N   UNL     1       5.755   2.693  -1.305  1.00  0.00    -0.336 N 
ATOM      9  HN  UNL     1       6.532   3.330  -1.480  1.00  0.00     0.168 HD
HETATM   10  N   UNL     1       4.437   1.340   0.227  1.00  0.00    -0.337 N 
ATOM     11  HN  UNL     1       4.315   1.026   1.190  1.00  0.00     0.168 HD
HETATM   12  C   UNL     1       5.452   2.173  -0.099  1.00  0.00     0.183 A 
ENDROOT
BRANCH   3  13
HETATM   13  N   UNL     1       2.520   0.044  -0.452  1.00  0.00    -0.359 N 
HETATM   14  C   UNL     1       1.285  -0.052  -1.162  1.00  0.00     0.136 C 
HETATM   15  C   UNL     1       0.543  -0.144   0.188  1.00  0.00    -0.003 C 
HETATM   16  C   UNL     1      -0.435  -1.322   0.292  1.00  0.00     0.013 C 
HETATM   17  C   UNL     1      -0.140   1.182   0.596  1.00  0.00     0.013 C 
HETATM   18  C   UNL     1       1.977  -0.307   0.835  1.00  0.00     0.099 C 
HETATM   19  C   UNL     1      -1.711  -1.067  -0.502  1.00  0.00     0.001 C 
HETATM   20  C   UNL     1      -2.391   0.210  -0.024  1.00  0.00     0.000 C 
HETATM   21  C   UNL     1      -1.449   1.400  -0.171  1.00  0.00     0.001 C 
BRANCH  18  22
HETATM   22  C   UNL     1       2.458  -1.704   1.289  1.00  0.00     0.001 C 
HETATM   23  C   UNL     1       3.983  -1.767   1.416  1.00  0.00     0.011 C 
HETATM   24  C   UNL     1       1.854  -2.069   2.649  1.00  0.00     0.011 C 
ENDBRANCH  18  22
ENDBRANCH   3  13
BRANCH   2  25
HETATM   25  C   UNL     1       5.722   3.379  -4.393  1.00  0.00     0.094 C 
HETATM   26  C   UNL     1       7.241   3.076  -4.276  1.00  0.00     0.039 C 
HETATM   27  C   UNL     1       7.498   4.621  -4.343  1.00  0.00     0.006 C 
HETATM   28  C   UNL     1       6.042   4.772  -3.790  1.00  0.00     0.039 C 
BRANCH  27  29
HETATM   29  C   UNL     1       8.625   5.154  -3.454  1.00  0.00     0.175 C 
BRANCH  29  30
HETATM   30  O   UNL     1       8.634   4.528  -2.176  1.00  0.00    -0.400 OA
HETATM   31  H   UNL     1       7.855   4.834  -1.681  1.00  0.00     0.209 HD
ENDBRANCH  29  30
ENDBRANCH  27  29
BRANCH  27  32
HETATM   32  C   UNL     1       7.682   5.131  -5.784  1.00  0.00     0.175 C 
BRANCH  32  33
HETATM   33  O   UNL     1       7.439   6.533  -5.835  1.00  0.00    -0.400 OA
HETATM   34  H   UNL     1       6.480   6.667  -5.944  1.00  0.00     0.209 HD
ENDBRANCH  32  33
ENDBRANCH  27  32
ENDBRANCH   2  25
TORSDOF 7
