REMARK  4 active torsions:
REMARK  status: ('A' for Active; 'I' for Inactive)
REMARK       I    between atoms: C_2  and  N_4 
REMARK    1  A    between atoms: N_7  and  C_8 
REMARK    2  A    between atoms: C_8  and  C_9 
REMARK    3  A    between atoms: C_9  and  N_10 
REMARK       I    between atoms: N_10  and  C_11 
REMARK       I    between atoms: C_11  and  N_13 
REMARK    4  A    between atoms: N_13  and  C_14 
ROOT
HETATM    1  N   UNL     1       6.901   0.360  -5.594  1.00  0.00    -0.341 N 
HETATM    2  C   UNL     1       7.613   1.139  -4.701  1.00  0.00     0.322 C 
HETATM    3  O   UNL     1       7.060   1.709  -3.770  1.00  0.00    -0.247 OA
HETATM    4  N   UNL     1       8.932   1.223  -5.050  1.00  0.00    -0.288 N 
HETATM    5  H   UNL     1       7.373  -0.439  -5.993  1.00  0.00     0.164 HD
HETATM    6  H   UNL     1       9.211   0.952  -5.976  1.00  0.00     0.172 HD
ENDROOT
BRANCH   1   7
HETATM    7  C   UNL     1       5.454   0.294  -5.476  1.00  0.00     0.154 C 
BRANCH   7   8
HETATM    8  C   UNL     1       4.985  -0.687  -4.383  1.00  0.00     0.292 C 
BRANCH   8   9
HETATM    9  N   UNL     1       3.522  -0.708  -4.187  1.00  0.00     0.093 N 
HETATM   10  C   UNL     1       2.993   0.584  -3.686  1.00  0.00     0.292 C 
HETATM   11  C   UNL     1       3.415   0.938  -2.248  1.00  0.00     0.156 C 
HETATM   12  N   UNL     1       3.060  -0.143  -1.325  1.00  0.00    -0.349 N 
HETATM   13  C   UNL     1       2.555   0.041  -0.049  1.00  0.00     0.215 C 
HETATM   14  C   UNL     1       3.487  -1.481  -1.744  1.00  0.00     0.156 C 
HETATM   15  C   UNL     1       2.240   1.457   0.362  1.00  0.00     0.117 C 
HETATM   16  O   UNL     1       2.342  -0.892   0.725  1.00  0.00    -0.274 OA
HETATM   17  C   UNL     1       3.132  -1.767  -3.221  1.00  0.00     0.292 C 
ENDBRANCH   8   9
ENDBRANCH   7   8
ENDBRANCH   1   7
BRANCH   4  18
HETATM   18  C   UNL     1       9.780   2.040  -4.352  1.00  0.00     0.168 A 
HETATM   19  N   UNL     1       9.636   2.596  -3.174  1.00  0.00    -0.279 N 
HETATM   20  N   UNL     1      10.702   3.415  -2.854  1.00  0.00    -0.303 N 
ATOM     21  HN  UNL     1       8.832   2.442  -2.565  1.00  0.00     0.189 HD
HETATM   22  C   UNL     1      11.602   3.433  -3.812  1.00  0.00     0.160 A 
ATOM     23  HN  UNL     1      10.781   3.940  -1.983  1.00  0.00     0.186 HD
HETATM   24  S   UNL     1      11.245   2.414  -5.148  1.00  0.00    -0.046 SA
ENDBRANCH   4  18
TORSDOF 4
