REMARK  5 active torsions:
REMARK  status: ('A' for Active; 'I' for Inactive)
REMARK    1  A    between atoms: C_6  and  N_7 
REMARK       I    between atoms: N_7  and  C_8 
REMARK       I    between atoms: C_8  and  N_10 
REMARK    2  A    between atoms: N_10  and  C_11 
REMARK    3  A    between atoms: C_11  and  C_12 
REMARK    4  A    between atoms: C_12  and  N_13 
REMARK    5  A    between atoms: C_12  and  C_16 
ROOT
HETATM    1  N   UNL     1       1.694   0.198   3.150  1.00  0.00    -0.338 N 
HETATM    2  C   UNL     1       0.371   0.550   3.079  1.00  0.00     0.316 C 
HETATM    3  O   UNL     1      -0.552  -0.243   2.973  1.00  0.00    -0.247 OA
HETATM    4  N   UNL     1       0.217   1.911   3.131  1.00  0.00    -0.341 N 
HETATM    5  H   UNL     1       2.341   0.895   2.810  1.00  0.00     0.164 HD
HETATM    6  H   UNL     1       0.895   2.406   3.693  1.00  0.00     0.164 HD
ENDROOT
BRANCH   4   7
HETATM    7  C   UNL     1      -1.109   2.506   3.067  1.00  0.00     0.165 C 
BRANCH   7   8
HETATM    8  C   UNL     1      -1.802   2.709   4.453  1.00  0.00     0.275 C 
BRANCH   8   9
HETATM    9  N   UNL     1      -1.013   3.570   5.384  1.00  0.00     0.090 N 
HETATM   10  C   UNL     1      -0.842   4.952   4.942  1.00  0.00     0.310 C 
HETATM   11  C   UNL     1      -1.537   3.541   6.754  1.00  0.00     0.310 C 
ENDBRANCH   8   9
BRANCH   8  12
HETATM   12  C   UNL     1      -3.219   3.205   4.277  1.00  0.00     0.011 A 
HETATM   13  C   UNL     1      -3.724   4.079   3.282  1.00  0.00     0.118 A 
HETATM   14  N   UNL     1      -5.029   4.314   3.402  1.00  0.00    -0.310 N 
HETATM   15  N   UNL     1      -5.382   3.577   4.470  1.00  0.00    -0.308 N 
ATOM     16  HN  UNL     1      -5.620   4.910   2.823  1.00  0.00     0.186 HD
HETATM   17  C   UNL     1      -6.753   3.569   4.916  1.00  0.00     0.177 C 
HETATM   18  C   UNL     1      -4.341   2.890   5.023  1.00  0.00     0.120 A 
ENDBRANCH   8  12
ENDBRANCH   7   8
ENDBRANCH   4   7
BRANCH   1  19
HETATM   19  C   UNL     1       2.103  -1.197   3.094  1.00  0.00     0.089 C 
HETATM   20  C   UNL     1       3.482  -1.440   3.719  1.00  0.00     0.004 C 
HETATM   21  C   UNL     1       3.739  -0.691   5.019  1.00  0.00     0.012 C 
HETATM   22  C   UNL     1       4.476  -1.077   2.612  1.00  0.00     0.006 C 
HETATM   23  C   UNL     1       3.735  -1.297   1.293  1.00  0.00     0.002 C 
HETATM   24  C   UNL     1       2.303  -1.687   1.658  1.00  0.00     0.026 C 
ENDBRANCH   1  19
TORSDOF 5
