REMARK  7 active torsions:
REMARK  status: ('A' for Active; 'I' for Inactive)
REMARK    1  A    between atoms: O_2  and  C_3 
REMARK    2  A    between atoms: C_3  and  C_4 
REMARK    3  A    between atoms: C_4  and  O_5 
REMARK    4  A    between atoms: O_5  and  C_6 
REMARK    5  A    between atoms: C_9  and  N_10 
REMARK       I    between atoms: N_10  and  C_11 
REMARK    6  A    between atoms: C_11  and  C_13 
REMARK    7  A    between atoms: N_17  and  S_18 
ROOT
HETATM    1  N   UNL     1      10.378   3.442  -1.388  1.00  0.00    -0.325 N 
HETATM    2  C   UNL     1      11.362   2.457  -1.391  1.00  0.00     0.241 C 
HETATM    3  O   UNL     1      11.200   1.312  -0.983  1.00  0.00    -0.271 OA
HETATM    4  H   UNL     1      10.672   4.405  -1.513  1.00  0.00     0.169 HD
ENDROOT
BRANCH   1   5
HETATM    5  C   UNL     1       8.998   3.209  -1.139  1.00  0.00     0.050 A 
HETATM    6  C   UNL     1       8.444   1.930  -1.110  1.00  0.00     0.035 A 
HETATM    7  C   UNL     1       7.094   1.757  -0.823  1.00  0.00     0.058 A 
HETATM    8  C   UNL     1       6.315   2.877  -0.611  1.00  0.00     0.141 A 
HETATM    9  N   UNL     1       6.787   4.141  -0.670  1.00  0.00    -0.345 N 
HETATM   10  C   UNL     1       8.115   4.273  -0.926  1.00  0.00     0.119 A 
ATOM     11  HN  UNL     1       6.182   4.950  -0.530  1.00  0.00     0.167 HD
BRANCH   8  12
HETATM   12  O   UNL     1       5.011   2.626  -0.244  1.00  0.00    -0.334 OA
BRANCH  12  13
HETATM   13  C   UNL     1       4.112   3.692  -0.539  1.00  0.00     0.203 C 
BRANCH  13  14
HETATM   14  C   UNL     1       2.719   3.253  -0.086  1.00  0.00     0.193 C 
BRANCH  14  15
HETATM   15  O   UNL     1       1.757   4.250  -0.425  1.00  0.00    -0.394 OA
HETATM   16  C   UNL     1       0.453   3.882   0.007  1.00  0.00     0.201 C 
ENDBRANCH  14  15
ENDBRANCH  13  14
ENDBRANCH  12  13
ENDBRANCH   8  12
ENDBRANCH   1   5
BRANCH   2  17
HETATM   17  C   UNL     1      12.703   2.911  -1.926  1.00  0.00     0.166 C 
HETATM   18  C   UNL     1      13.515   1.760  -2.531  1.00  0.00     0.031 C 
HETATM   19  C   UNL     1      14.967   2.210  -2.470  1.00  0.00     0.018 C 
HETATM   20  C   UNL     1      14.934   3.599  -1.840  1.00  0.00     0.108 C 
HETATM   21  N   UNL     1      13.659   3.632  -1.032  1.00  0.00    -0.197 NA
BRANCH  21  22
HETATM   22  S   UNL     1      13.946   3.097   0.567  1.00  0.00     0.208 S 
HETATM   23  O   UNL     1      14.326   1.704   0.521  1.00  0.00    -0.212 OA
HETATM   24  O   UNL     1      14.840   4.078   1.153  1.00  0.00    -0.212 OA
HETATM   25  C   UNL     1      12.392   3.239   1.421  1.00  0.00     0.180 C 
ENDBRANCH  21  22
ENDBRANCH   2  17
TORSDOF 7
