REMARK  5 active torsions:
REMARK  status: ('A' for Active; 'I' for Inactive)
REMARK    1  A    between atoms: C_2  and  C_3 
REMARK    2  A    between atoms: C_7  and  N_9 
REMARK    3  A    between atoms: N_9  and  C_10 
REMARK    4  A    between atoms: C_10  and  C_11 
REMARK    5  A    between atoms: C_11  and  C_12 
ROOT
HETATM    1  N   UNL     1       6.034  -0.381  -1.391  1.00  0.00     0.088 N 
HETATM    2  H   UNL     1       6.157  -1.121  -0.698  1.00  0.00     0.316 HD
ENDROOT
BRANCH   1   3
HETATM    3  C   UNL     1       4.670   0.173  -1.254  1.00  0.00     0.220 C 
HETATM    4  C   UNL     1       4.449   1.415  -2.136  1.00  0.00     0.035 C 
HETATM    5  C   UNL     1       3.057   2.022  -1.958  1.00  0.00     0.002 C 
HETATM    6  C   UNL     1       2.724   2.277  -0.493  1.00  0.00     0.005 C 
HETATM    7  C   UNL     1       2.914   1.029   0.384  1.00  0.00    -0.013 C 
HETATM    8  C   UNL     1       4.363   0.514   0.215  1.00  0.00     0.040 C 
BRANCH   7   9
HETATM    9  C   UNL     1       1.903  -0.104   0.097  1.00  0.00     0.000 C 
HETATM   10  C   UNL     1       0.442   0.276   0.273  1.00  0.00     0.005 C 
ENDBRANCH   7   9
ENDBRANCH   1   3
BRANCH   1  11
HETATM   11  C   UNL     1       6.216  -0.949  -2.735  1.00  0.00     0.274 C 
BRANCH  11  12
HETATM   12  C   UNL     1       7.547  -1.678  -2.931  1.00  0.00     0.070 C 
BRANCH  12  13
HETATM   13  C   UNL     1       7.635  -2.135  -4.365  1.00  0.00    -0.041 A 
HETATM   14  C   UNL     1       8.110  -1.284  -5.366  1.00  0.00     0.010 A 
HETATM   15  C   UNL     1       8.053  -1.684  -6.697  1.00  0.00     0.018 A 
HETATM   16  C   UNL     1       7.520  -2.929  -6.984  1.00  0.00     0.087 A 
HETATM   17  N   UNL     1       7.057  -3.783  -6.047  1.00  0.00    -0.375 N 
HETATM   18  C   UNL     1       7.122  -3.367  -4.762  1.00  0.00     0.094 A 
ATOM     19  HN  UNL     1       6.677  -4.696  -6.296  1.00  0.00     0.164 HD
ENDBRANCH  12  13
ENDBRANCH  11  12
ENDBRANCH   1  11
TORSDOF 5
