REMARK  6 active torsions:
REMARK  status: ('A' for Active; 'I' for Inactive)
REMARK    1  A    between atoms: C_4  and  N_5 
REMARK       I    between atoms: N_5  and  C_6 
REMARK       I    between atoms: C_6  and  N_8 
REMARK    2  A    between atoms: N_8  and  C_9 
REMARK    3  A    between atoms: C_9  and  C_10 
REMARK    4  A    between atoms: C_10  and  O_11 
REMARK    5  A    between atoms: C_10  and  C_12 
REMARK    6  A    between atoms: C_12  and  N_13 
ROOT
HETATM    1  N   UNL     1       5.494   1.789   1.253  1.00  0.00    -0.293 N 
HETATM    2  C   UNL     1       5.376   3.150   1.095  1.00  0.00     0.321 C 
HETATM    3  O   UNL     1       4.375   3.837   1.250  1.00  0.00    -0.247 OA
HETATM    4  N   UNL     1       6.586   3.713   0.742  1.00  0.00    -0.340 N 
HETATM    5  H   UNL     1       6.417   1.390   1.257  1.00  0.00     0.172 HD
HETATM    6  H   UNL     1       7.173   3.153   0.131  1.00  0.00     0.164 HD
ENDROOT
BRANCH   4   7
HETATM    7  C   UNL     1       6.658   5.149   0.487  1.00  0.00     0.157 C 
BRANCH   7   8
HETATM    8  C   UNL     1       8.091   5.532   0.095  1.00  0.00     0.164 C 
BRANCH   8   9
HETATM    9  O   UNL     1       8.383   4.766  -1.091  1.00  0.00    -0.392 OA
HETATM   10  H   UNL     1       7.826   5.121  -1.806  1.00  0.00     0.210 HD
ENDBRANCH   8   9
BRANCH   8  11
HETATM   11  C   UNL     1       8.239   7.062  -0.129  1.00  0.00     0.305 C 
BRANCH  11  12
HETATM   12  N   UNL     1       9.618   7.545  -0.382  1.00  0.00     0.090 N 
HETATM   13  C   UNL     1       9.676   9.011  -0.531  1.00  0.00     0.272 C 
HETATM   14  C   UNL     1       9.059   9.529  -1.838  1.00  0.00     0.030 C 
HETATM   15  C   UNL     1       9.593   8.794  -3.067  1.00  0.00     0.003 C 
HETATM   16  C   UNL     1       9.626   7.282  -2.864  1.00  0.00     0.030 C 
HETATM   17  C   UNL     1      10.289   6.926  -1.533  1.00  0.00     0.272 C 
ENDBRANCH  11  12
ENDBRANCH   8  11
ENDBRANCH   7   8
ENDBRANCH   4   7
BRANCH   1  18
HETATM   18  C   UNL     1       4.435   0.958   1.561  1.00  0.00     0.132 A 
HETATM   19  C   UNL     1       4.560  -0.430   1.818  1.00  0.00     0.084 A 
HETATM   20  C   UNL     1       3.275  -0.859   2.053  1.00  0.00     0.076 A 
HETATM   21  C   UNL     1       2.642  -2.153   2.362  1.00  0.00     0.079 C 
HETATM   22  O   UNL     1       2.433   0.200   1.960  1.00  0.00    -0.241 OA
HETATM   23  N   UNL     1       3.154   1.328   1.646  1.00  0.00    -0.245 N 
ATOM     24  HN  UNL     1       2.782   2.267   1.505  1.00  0.00     0.196 HD
ENDBRANCH   1  18
TORSDOF 6
