REMARK  5 active torsions:
REMARK  status: ('A' for Active; 'I' for Inactive)
REMARK    1  A    between atoms: C_2  and  C_3 
REMARK    2  A    between atoms: C_2  and  N_15 
REMARK       I    between atoms: C_3  and  N_5 
REMARK    3  A    between atoms: N_5  and  C_6 
REMARK    4  A    between atoms: C_6  and  C_7 
REMARK    5  A    between atoms: C_7  and  N_8 
ROOT
HETATM    1  C   UNL     1       3.125  -0.999  -1.223  1.00  0.00     0.242 C 
HETATM    2  O   UNL     1       4.011  -0.702  -2.022  1.00  0.00    -0.271 OA
HETATM    3  N   UNL     1       2.666  -2.295  -1.087  1.00  0.00    -0.358 N 
HETATM    4  H   UNL     1       2.029  -2.535  -0.333  1.00  0.00     0.162 HD
ENDROOT
BRANCH   1   5
HETATM    5  C   UNL     1       2.418   0.043  -0.368  1.00  0.00     0.196 C 
HETATM    6  C   UNL     1       2.941   1.450  -0.657  1.00  0.00     0.044 C 
BRANCH   5   7
HETATM    7  N   UNL     1       2.527  -0.291   1.039  1.00  0.00    -0.273 N 
HETATM    8  C   UNL     1       3.648  -0.401   1.802  1.00  0.00     0.202 A 
HETATM    9  N   UNL     1       3.313  -0.735   3.026  1.00  0.00    -0.346 N 
HETATM   10  C   UNL     1       1.953  -0.828   2.961  1.00  0.00     0.198 A 
ATOM     11  HN  UNL     1       3.921  -0.888   3.830  1.00  0.00     0.167 HD
HETATM   12  N   UNL     1       1.425  -0.592   1.757  1.00  0.00    -0.292 N 
ATOM     13  HN  UNL     1       0.450  -0.629   1.460  1.00  0.00     0.188 HD
ENDBRANCH   5   7
ENDBRANCH   1   5
BRANCH   3  14
HETATM   14  C   UNL     1       3.234  -3.346  -1.915  1.00  0.00     0.152 C 
BRANCH  14  15
HETATM   15  C   UNL     1       2.603  -4.727  -1.679  1.00  0.00     0.292 C 
BRANCH  15  16
HETATM   16  N   UNL     1       3.182  -5.789  -2.522  1.00  0.00     0.090 N 
HETATM   17  C   UNL     1       2.976  -5.595  -3.965  1.00  0.00     0.272 C 
HETATM   18  C   UNL     1       1.524  -5.791  -4.408  1.00  0.00     0.031 C 
HETATM   19  C   UNL     1       1.011  -7.165  -3.990  1.00  0.00     0.007 C 
HETATM   20  C   UNL     1       1.246  -7.409  -2.493  1.00  0.00     0.010 C 
HETATM   21  C   UNL     1       0.853  -8.835  -2.112  1.00  0.00     0.011 C 
HETATM   22  C   UNL     1       2.714  -7.128  -2.123  1.00  0.00     0.276 C 
ENDBRANCH  15  16
ENDBRANCH  14  15
ENDBRANCH   3  14
TORSDOF 5
