REMARK  3 active torsions:
REMARK  status: ('A' for Active; 'I' for Inactive)
REMARK    1  A    between atoms: C_7  and  N_8 
REMARK    2  A    between atoms: N_8  and  C_9 
REMARK    3  A    between atoms: C_9  and  C_10 
ROOT
HETATM    1  N   UNL     1       4.962  -2.841   1.059  1.00  0.00    -0.262 NA
HETATM    2  H   UNL     1       5.879  -2.411   1.093  1.00  0.00     0.130 HD
ENDROOT
BRANCH   1   3
HETATM    3  C   UNL     1       4.080  -1.833   1.387  1.00  0.00     0.157 A 
HETATM    4  N   UNL     1       4.649  -0.811   2.041  1.00  0.00    -0.343 N 
HETATM    5  C   UNL     1       3.839   0.176   2.458  1.00  0.00     0.092 A 
ATOM      6  HN  UNL     1       5.654  -0.784   2.215  1.00  0.00     0.167 HD
HETATM    7  C   UNL     1       2.488   0.187   2.232  1.00  0.00     0.041 A 
HETATM    8  C   UNL     1       1.990  -0.891   1.530  1.00  0.00     0.009 A 
HETATM    9  C   UNL     1       0.523  -0.995   1.242  1.00  0.00     0.068 C 
HETATM   10  N   UNL     1       2.774  -1.907   1.100  1.00  0.00    -0.337 N 
ATOM     11  HN  UNL     1       2.387  -2.695   0.580  1.00  0.00     0.168 HD
ENDBRANCH   1   3
BRANCH   1  12
HETATM   12  C   UNL     1       4.694  -3.709  -0.081  1.00  0.00     0.129 C 
BRANCH  12  13
HETATM   13  C   UNL     1       5.895  -4.673  -0.257  1.00  0.00     0.163 C 
HETATM   14  C   UNL     1       6.063  -5.675   0.917  1.00  0.00     0.306 C 
HETATM   15  N   UNL     1       5.330  -6.951   0.767  1.00  0.00     0.097 N 
HETATM   16  C   UNL     1       5.690  -7.864   1.862  1.00  0.00     0.273 C 
HETATM   17  C   UNL     1       5.650  -7.518  -0.560  1.00  0.00     0.246 C 
HETATM   18  C   UNL     1       5.019  -9.228   1.712  1.00  0.00     0.030 C 
HETATM   19  C   UNL     1       5.346  -9.851   0.360  1.00  0.00     0.004 C 
HETATM   20  C   UNL     1       4.985  -8.885  -0.765  1.00  0.00     0.038 C 
HETATM   21  C   UNL     1       5.193  -6.513  -1.635  1.00  0.00     0.204 C 
HETATM   22  O   UNL     1       5.937  -5.292  -1.557  1.00  0.00    -0.381 OA
ENDBRANCH  12  13
ENDBRANCH   1  12
TORSDOF 3
