REMARK  4 active torsions:
REMARK  status: ('A' for Active; 'I' for Inactive)
REMARK    1  A    between atoms: O_2  and  C_3 
REMARK    2  A    between atoms: C_6  and  N_7 
REMARK       I    between atoms: N_7  and  C_8 
REMARK    3  A    between atoms: C_8  and  C_10 
REMARK    4  A    between atoms: C_10  and  C_11 
ROOT
HETATM    1  N   UNL     1       4.164   0.636  -3.918  1.00  0.00    -0.355 N 
HETATM    2  C   UNL     1       3.744  -0.477  -4.630  1.00  0.00     0.222 C 
HETATM    3  O   UNL     1       3.513  -1.577  -4.137  1.00  0.00    -0.273 OA
HETATM    4  H   UNL     1       4.430   1.446  -4.465  1.00  0.00     0.162 HD
ENDROOT
BRANCH   1   5
HETATM    5  C   UNL     1       4.469   0.673  -2.450  1.00  0.00     0.098 C 
HETATM    6  C   UNL     1       4.044  -0.529  -1.576  1.00  0.00     0.064 C 
HETATM    7  C   UNL     1       2.703   0.207  -1.244  1.00  0.00     0.067 C 
HETATM    8  C   UNL     1       1.527  -0.161  -2.158  1.00  0.00     0.047 C 
HETATM    9  C   UNL     1       3.495   1.554  -1.565  1.00  0.00     0.004 C 
HETATM   10  C   UNL     1       2.720   2.670  -2.264  1.00  0.00     0.020 C 
HETATM   11  C   UNL     1       4.214   2.145  -0.334  1.00  0.00     0.020 C 
BRANCH   7  12
HETATM   12  O   UNL     1       2.319   0.008   0.146  1.00  0.00    -0.384 OA
HETATM   13  C   UNL     1       1.145   0.647   0.623  1.00  0.00     0.202 C 
ENDBRANCH   7  12
ENDBRANCH   1   5
BRANCH   2  14
HETATM   14  C   UNL     1       3.536  -0.262  -6.114  1.00  0.00     0.146 C 
BRANCH  14  15
HETATM   15  C   UNL     1       4.696  -0.767  -6.893  1.00  0.00     0.006 A 
HETATM   16  C   UNL     1       5.512  -0.053  -7.812  1.00  0.00     0.038 A 
HETATM   17  C   UNL     1       5.419   1.362  -8.242  1.00  0.00     0.071 C 
HETATM   18  N   UNL     1       6.470  -0.830  -8.322  1.00  0.00    -0.265 N 
HETATM   19  O   UNL     1       6.294  -2.073  -7.754  1.00  0.00    -0.242 OA
ATOM     20  HN  UNL     1       7.187  -0.559  -8.995  1.00  0.00     0.194 HD
HETATM   21  C   UNL     1       5.233  -2.042  -6.906  1.00  0.00     0.081 A 
HETATM   22  C   UNL     1       4.916  -3.312  -6.218  1.00  0.00     0.079 C 
ENDBRANCH  14  15
ENDBRANCH   2  14
TORSDOF 4
