REMARK  5 active torsions:
REMARK  status: ('A' for Active; 'I' for Inactive)
REMARK    1  A    between atoms: C_2  and  C_3 
REMARK       I    between atoms: C_2  and  N_9 
REMARK    2  A    between atoms: C_3  and  C_4 
REMARK    3  A    between atoms: N_9  and  C_10 
REMARK    4  A    between atoms: C_10  and  C_11 
REMARK    5  A    between atoms: C_11  and  N_12 
ROOT
HETATM    1  O   UNL     1       1.094   0.709   0.483  1.00  0.00    -0.274 OA
HETATM    2  C   UNL     1       2.224   0.304   0.240  1.00  0.00     0.217 C 
HETATM    3  N   UNL     1       3.065  -0.207   1.212  1.00  0.00    -0.359 N 
HETATM    4  H   UNL     1       3.890  -0.708   0.906  1.00  0.00     0.162 HD
ENDROOT
BRANCH   3   5
HETATM    5  C   UNL     1       2.600  -0.357   2.583  1.00  0.00     0.143 C 
BRANCH   5   6
HETATM    6  C   UNL     1       3.703  -0.836   3.520  1.00  0.00     0.148 C 
BRANCH   6   7
HETATM    7  N   UNL     1       3.257  -0.972   4.889  1.00  0.00    -0.350 N 
HETATM    8  C   UNL     1       2.718  -2.092   5.457  1.00  0.00     0.108 A 
HETATM    9  C   UNL     1       2.511  -1.756   6.775  1.00  0.00     0.106 A 
HETATM   10  N   UNL     1       2.914  -0.468   7.015  1.00  0.00    -0.361 N 
HETATM   11  C   UNL     1       3.360  -0.021   5.862  1.00  0.00     0.182 A 
ATOM     12  HN  UNL     1       2.876   0.037   7.901  1.00  0.00     0.166 HD
ENDBRANCH   6   7
ENDBRANCH   5   6
ENDBRANCH   3   5
BRANCH   2  13
HETATM   13  C   UNL     1       2.860   0.321  -1.141  1.00  0.00     0.107 C 
BRANCH  13  14
HETATM   14  C   UNL     1       1.923   0.824  -2.242  1.00  0.00    -0.006 C 
HETATM   15  C   UNL     1       0.722  -0.098  -2.498  1.00  0.00     0.005 C 
HETATM   16  C   UNL     1       0.501  -0.123  -4.010  1.00  0.00     0.000 C 
HETATM   17  C   UNL     1       1.478   0.885  -4.597  1.00  0.00     0.000 C 
HETATM   18  C   UNL     1       2.623   0.918  -3.599  1.00  0.00     0.005 C 
ENDBRANCH  13  14
ENDBRANCH   2  13
TORSDOF 5
