REMARK  3 active torsions:
REMARK  status: ('A' for Active; 'I' for Inactive)
REMARK       I    between atoms: N_2  and  C_3 
REMARK    1  A    between atoms: C_3  and  C_5 
REMARK    2  A    between atoms: C_5  and  N_6 
REMARK    3  A    between atoms: C_10  and  N_11 
ROOT
HETATM    1  N   UNL     1       5.102  -0.503   2.709  1.00  0.00    -0.264 N 
HETATM    2  C   UNL     1       5.350  -1.704   3.291  1.00  0.00     0.218 A 
HETATM    3  N   UNL     1       5.860  -1.505   4.485  1.00  0.00    -0.185 N 
ATOM      4  HN  UNL     1       6.163  -2.199   5.168  1.00  0.00     0.185 HD
HETATM    5  C   UNL     1       5.887  -0.150   4.590  1.00  0.00     0.691 A 
HETATM    6  N   UNL     1       5.441   0.513   3.527  1.00  0.00    -0.129 N 
ATOM      7  HN  UNL     1       5.374   1.519   3.372  1.00  0.00     0.206 HD
ENDROOT
BRANCH   1   8
HETATM    8  C   UNL     1       4.556  -0.247   1.400  1.00  0.00     0.253 C 
BRANCH   8   9
HETATM    9  C   UNL     1       3.051  -0.162   1.451  1.00  0.00     0.237 C 
HETATM   10  N   UNL     1       2.551   0.897   2.180  1.00  0.00    -0.364 N 
HETATM   11  C   UNL     1       1.134   1.060   2.376  1.00  0.00     0.149 C 
HETATM   12  H   UNL     1       3.188   1.402   2.794  1.00  0.00     0.161 HD
HETATM   13  O   UNL     1       2.338  -0.963   0.850  1.00  0.00    -0.272 OA
ENDBRANCH   8   9
ENDBRANCH   1   8
BRANCH   5  14
HETATM   14  N   UNL     1       6.372   0.393   5.702  1.00  0.00    -0.233 N 
HETATM   15  H   UNL     1       6.939  -0.210   6.283  1.00  0.00     0.174 HD
HETATM   16  H   UNL     1       6.697   1.348   5.643  1.00  0.00     0.174 HD
ENDBRANCH   5  14
TORSDOF 3
