REMARK  5 active torsions:
REMARK  status: ('A' for Active; 'I' for Inactive)
REMARK    1  A    between atoms: C_2  and  C_3 
REMARK    2  A    between atoms: C_2  and  N_10 
REMARK    3  A    between atoms: C_3  and  N_4 
REMARK    4  A    between atoms: N_10  and  S_11 
REMARK    5  A    between atoms: S_11  and  N_14 
ROOT
HETATM    1  N   UNL     1       3.176   0.886   0.943  1.00  0.00    -0.201 NA
HETATM    2  H   UNL     1       2.785   0.852   1.887  1.00  0.00     0.141 HD
ENDROOT
BRANCH   1   3
HETATM    3  C   UNL     1       2.410  -0.065   0.043  1.00  0.00     0.088 C 
HETATM    4  C   UNL     1       0.915   0.263   0.116  1.00  0.00     0.029 C 
BRANCH   3   5
HETATM    5  C   UNL     1       2.886  -0.097  -1.421  1.00  0.00     0.168 C 
BRANCH   5   6
HETATM    6  N   UNL     1       2.684   1.146  -2.141  1.00  0.00    -0.302 N 
HETATM    7  C   UNL     1       3.238   2.366  -1.881  1.00  0.00     0.111 A 
HETATM    8  C   UNL     1       2.671   3.249  -2.762  1.00  0.00     0.037 A 
HETATM    9  C   UNL     1       1.813   2.461  -3.544  1.00  0.00     0.108 A 
HETATM   10  N   UNL     1       1.813   1.178  -3.171  1.00  0.00    -0.310 N 
ATOM     11  HN  UNL     1       1.280   0.405  -3.571  1.00  0.00     0.186 HD
ENDBRANCH   5   6
ENDBRANCH   3   5
ENDBRANCH   1   3
BRANCH   1  12
HETATM   12  S   UNL     1       4.814   0.518   1.094  1.00  0.00     0.281 S 
HETATM   13  O   UNL     1       4.864  -0.749   1.791  1.00  0.00    -0.194 OA
HETATM   14  O   UNL     1       5.451   0.695  -0.187  1.00  0.00    -0.194 OA
BRANCH  12  15
HETATM   15  N   UNL     1       5.355   1.723   2.136  1.00  0.00    -0.198 NA
HETATM   16  C   UNL     1       5.242   3.151   1.735  1.00  0.00     0.109 C 
HETATM   17  C   UNL     1       6.318   3.579   0.735  1.00  0.00     0.020 C 
HETATM   18  C   UNL     1       7.746   3.151   1.114  1.00  0.00    -0.016 C 
HETATM   19  C   UNL     1       8.380   4.104   2.128  1.00  0.00     0.010 C 
HETATM   20  C   UNL     1       7.788   1.708   1.635  1.00  0.00     0.020 C 
HETATM   21  C   UNL     1       6.712   1.442   2.686  1.00  0.00     0.109 C 
ENDBRANCH  12  15
ENDBRANCH   1  12
TORSDOF 5
