REMARK  7 active torsions:
REMARK  status: ('A' for Active; 'I' for Inactive)
REMARK    1  A    between atoms: O_2  and  C_3 
REMARK    2  A    between atoms: C_6  and  O_7 
REMARK    3  A    between atoms: O_7  and  C_8 
REMARK    4  A    between atoms: C_8  and  C_9 
REMARK    5  A    between atoms: C_9  and  O_10 
REMARK    6  A    between atoms: C_9  and  C_11 
REMARK    7  A    between atoms: C_11  and  N_12 
ROOT
HETATM    1  C   UNL     1       5.723  -6.668   2.341  1.00  0.00     0.160 C 
ENDROOT
BRANCH   1   2
HETATM    2  C   UNL     1       4.713  -5.632   1.820  1.00  0.00     0.209 C 
BRANCH   2   3
HETATM    3  O   UNL     1       3.475  -5.846   2.511  1.00  0.00    -0.349 OA
BRANCH   3   4
HETATM    4  C   UNL     1       2.439  -5.016   2.191  1.00  0.00     0.069 A 
HETATM    5  C   UNL     1       1.166  -5.543   2.413  1.00  0.00     0.039 A 
HETATM    6  C   UNL     1       0.027  -4.778   2.152  1.00  0.00     0.039 A 
HETATM    7  C   UNL     1       0.151  -3.464   1.703  1.00  0.00     0.068 A 
HETATM    8  C   UNL     1       1.421  -2.934   1.480  1.00  0.00     0.039 A 
HETATM    9  C   UNL     1       2.564  -3.708   1.724  1.00  0.00     0.039 A 
BRANCH   7  10
HETATM   10  O   UNL     1      -1.029  -2.807   1.482  1.00  0.00    -0.356 OA
HETATM   11  C   UNL     1      -0.980  -1.391   1.633  1.00  0.00     0.210 C 
ENDBRANCH   7  10
ENDBRANCH   3   4
ENDBRANCH   2   3
ENDBRANCH   1   2
BRANCH   1  12
HETATM   12  O   UNL     1       5.941  -6.416   3.738  1.00  0.00    -0.392 OA
HETATM   13  H   UNL     1       5.064  -6.300   4.151  1.00  0.00     0.210 HD
ENDBRANCH   1  12
BRANCH   1  14
HETATM   14  C   UNL     1       5.212  -8.099   2.139  1.00  0.00     0.164 C 
BRANCH  14  15
HETATM   15  N   UNL     1       6.171  -9.109   2.550  1.00  0.00    -0.339 N 
HETATM   16  C   UNL     1       6.218  -9.675   3.794  1.00  0.00     0.184 A 
HETATM   17  N   UNL     1       7.116 -10.631   3.863  1.00  0.00    -0.350 N 
HETATM   18  C   UNL     1       7.685 -10.675   2.616  1.00  0.00     0.060 A 
ATOM     19  HN  UNL     1       7.341 -11.214   4.669  1.00  0.00     0.166 HD
HETATM   20  C   UNL     1       8.699 -11.515   2.133  1.00  0.00     0.032 A 
HETATM   21  C   UNL     1       7.117  -9.724   1.767  1.00  0.00     0.062 A 
HETATM   22  C   UNL     1       9.116 -11.372   0.805  1.00  0.00     0.002 A 
HETATM   23  C   UNL     1       8.538 -10.410  -0.026  1.00  0.00     0.002 A 
HETATM   24  C   UNL     1       7.523  -9.563   0.437  1.00  0.00     0.032 A 
ENDBRANCH  14  15
ENDBRANCH   1  14
TORSDOF 7
