REMARK  6 active torsions:
REMARK  status: ('A' for Active; 'I' for Inactive)
REMARK    1  A    between atoms: C_4  and  N_5 
REMARK       I    between atoms: N_5  and  C_6 
REMARK    2  A    between atoms: C_6  and  C_8 
REMARK    3  A    between atoms: C_8  and  N_9 
REMARK    4  A    between atoms: C_12  and  C_13 
REMARK    5  A    between atoms: C_13  and  N_14 
REMARK    6  A    between atoms: N_18  and  C_19 
ROOT
HETATM    1  N   UNL     1       6.989  -2.929  -2.874  1.00  0.00    -0.256 N 
HETATM    2  C   UNL     1       7.138  -2.395  -4.147  1.00  0.00     0.273 A 
HETATM    3  O   UNL     1       6.970  -1.209  -4.413  1.00  0.00    -0.266 OA
HETATM    4  C   UNL     1       7.546  -3.340  -5.215  1.00  0.00     0.110 A 
HETATM    5  C   UNL     1       7.674  -4.633  -4.913  1.00  0.00     0.123 A 
HETATM    6  N   UNL     1       7.470  -5.113  -3.636  1.00  0.00    -0.303 N 
HETATM    7  C   UNL     1       7.093  -4.285  -2.570  1.00  0.00     0.332 A 
HETATM    8  O   UNL     1       6.852  -4.713  -1.438  1.00  0.00    -0.246 OA
ENDROOT
BRANCH   1   9
HETATM    9  C   UNL     1       6.698  -2.018  -1.772  1.00  0.00     0.239 C 
BRANCH   9  10
HETATM   10  C   UNL     1       5.199  -1.865  -1.490  1.00  0.00     0.236 C 
HETATM   11  N   UNL     1       4.665  -2.785  -0.605  1.00  0.00    -0.361 N 
HETATM   12  H   UNL     1       5.222  -3.605  -0.381  1.00  0.00     0.162 HD
HETATM   13  O   UNL     1       4.532  -0.975  -2.014  1.00  0.00    -0.272 OA
BRANCH  11  14
HETATM   14  C   UNL     1       3.088  -3.534   1.133  1.00  0.00     0.102 A 
HETATM   15  C   UNL     1       2.233  -3.005  -1.205  1.00  0.00    -0.020 A 
HETATM   16  C   UNL     1       2.218  -4.445  -1.692  1.00  0.00     0.006 C 
HETATM   17  C   UNL     1       3.289  -2.693  -0.130  1.00  0.00     0.057 A 
ENDBRANCH  11  14
ENDBRANCH   9  10
ENDBRANCH   1   9
BRANCH   4  18
HETATM   18  C   UNL     1       7.736  -2.813  -6.628  1.00  0.00    -0.030 C 
BRANCH  18  19
HETATM   19  N   UNL     1       7.894  -2.375  -7.800  1.00  0.00    -0.365 N 
ATOM     20  HN2 UNL     1       7.781  -2.698  -6.839  1.00  0.00     0.165 HD
ATOM     21  HN1 UNL     1       8.022  -2.021  -8.748  1.00  0.00     0.165 HD
ENDBRANCH  18  19
ENDBRANCH   4  18
BRANCH   6  22
HETATM   22  C   UNL     1       7.515  -6.547  -3.445  1.00  0.00     0.094 A 
HETATM   23  C   UNL     1       8.504  -7.202  -2.513  1.00  0.00     0.028 A 
HETATM   24  C   UNL     1       8.631  -7.408  -3.990  1.00  0.00     0.028 A 
ENDBRANCH   6  22
TORSDOF 6
