REMARK  4 active torsions:
REMARK  status: ('A' for Active; 'I' for Inactive)
REMARK    1  A    between atoms: C_2  and  N_3 
REMARK    2  A    between atoms: C_2  and  C_22 
REMARK       I    between atoms: N_3  and  C_4 
REMARK       I    between atoms: C_4  and  N_6 
REMARK    3  A    between atoms: N_6  and  C_7 
REMARK    4  A    between atoms: C_10  and  N_14 
ROOT
HETATM    1  C   UNL     1       2.827  -1.064   4.884  1.00  0.00     0.051 A 
HETATM    2  C   UNL     1       2.361  -2.026   5.765  1.00  0.00     0.035 A 
HETATM    3  C   UNL     1       1.988  -1.671   7.063  1.00  0.00     0.051 A 
HETATM    4  C   UNL     1       2.052  -0.348   7.494  1.00  0.00     0.103 A 
HETATM    5  N   UNL     1       2.505   0.603   6.645  1.00  0.00    -0.350 N 
ATOM      6  HN  UNL     1       2.572   1.576   6.942  1.00  0.00     0.166 HD
HETATM    7  C   UNL     1       2.871   0.234   5.381  1.00  0.00     0.119 A 
ENDROOT
BRANCH   1   8
HETATM    8  N   UNL     1       3.232  -1.360   3.558  1.00  0.00    -0.308 N 
HETATM    9  C   UNL     1       3.517  -2.625   3.080  1.00  0.00     0.321 C 
HETATM   10  N   UNL     1       3.849  -2.616   1.743  1.00  0.00    -0.336 N 
HETATM   11  O   UNL     1       3.540  -3.658   3.739  1.00  0.00    -0.247 OA
HETATM   12  H   UNL     1       3.291  -2.006   1.160  1.00  0.00     0.164 HD
HETATM   13  H   UNL     1       3.552  -0.594   2.980  1.00  0.00     0.170 HD
BRANCH  10  14
HETATM   14  C   UNL     1       4.272  -3.874   1.104  1.00  0.00     0.111 C 
HETATM   15  C   UNL     1       5.246  -3.550  -0.026  1.00  0.00     0.035 C 
BRANCH  14  16
HETATM   16  C   UNL     1       3.057  -4.722   0.658  1.00  0.00     0.143 C 
HETATM   17  C   UNL     1       3.395  -6.120   0.140  1.00  0.00     0.036 C 
HETATM   18  C   UNL     1       2.464  -6.336  -1.037  1.00  0.00     0.029 C 
HETATM   19  C   UNL     1       1.569  -5.117  -1.040  1.00  0.00     0.168 C 
HETATM   20  O   UNL     1       2.334  -4.081  -0.413  1.00  0.00    -0.384 OA
ENDBRANCH  14  16
ENDBRANCH  10  14
ENDBRANCH   1   8
BRANCH   4  21
HETATM   21  N   UNL     1       1.696  -0.009   8.782  1.00  0.00    -0.362 N 
HETATM   22  C   UNL     1       0.647  -0.715   9.531  1.00  0.00     0.156 C 
HETATM   23  C   UNL     1      -0.529   0.237   9.842  1.00  0.00     0.136 C 
HETATM   24  C   UNL     1      -1.545  -0.439  10.756  1.00  0.00     0.041 C 
HETATM   25  O   UNL     1      -0.073   1.428  10.507  1.00  0.00    -0.378 OA
HETATM   26  C   UNL     1       0.862   2.145   9.674  1.00  0.00     0.136 C 
HETATM   27  C   UNL     1       1.259   3.403  10.435  1.00  0.00     0.041 C 
HETATM   28  C   UNL     1       2.099   1.279   9.357  1.00  0.00     0.156 C 
ENDBRANCH   4  21
TORSDOF 4
