REMARK  4 active torsions:
REMARK  status: ('A' for Active; 'I' for Inactive)
REMARK    1  A    between atoms: C_2  and  N_3 
REMARK    2  A    between atoms: C_2  and  C_19 
REMARK       I    between atoms: N_3  and  C_4 
REMARK       I    between atoms: C_4  and  N_6 
REMARK    3  A    between atoms: N_6  and  C_7 
REMARK    4  A    between atoms: C_11  and  C_15 
ROOT
HETATM    1  N   UNL     1       1.940  -0.861  -1.277  1.00  0.00    -0.338 N 
HETATM    2  C   UNL     1       2.093  -2.215  -1.365  1.00  0.00     0.321 C 
HETATM    3  O   UNL     1       2.022  -2.939  -0.380  1.00  0.00    -0.247 OA
HETATM    4  N   UNL     1       2.380  -2.635  -2.643  1.00  0.00    -0.306 N 
HETATM    5  H   UNL     1       1.881  -0.315  -2.123  1.00  0.00     0.164 HD
HETATM    6  H   UNL     1       2.322  -1.951  -3.382  1.00  0.00     0.171 HD
ENDROOT
BRANCH   4   7
HETATM    7  C   UNL     1       2.784  -3.940  -2.991  1.00  0.00     0.067 A 
HETATM    8  C   UNL     1       2.989  -4.968  -2.096  1.00  0.00     0.120 A 
HETATM    9  N   UNL     1       3.457  -6.183  -2.440  1.00  0.00    -0.353 N 
HETATM   10  C   UNL     1       3.740  -6.391  -3.735  1.00  0.00     0.088 A 
ATOM     11  HN  UNL     1       3.591  -6.916  -1.744  1.00  0.00     0.166 HD
HETATM   12  N   UNL     1       3.538  -5.471  -4.703  1.00  0.00    -0.353 N 
HETATM   13  C   UNL     1       3.064  -4.268  -4.304  1.00  0.00     0.120 A 
ATOM     14  HN  UNL     1       3.733  -5.673  -5.684  1.00  0.00     0.166 HD
BRANCH  10  15
HETATM   15  C   UNL     1       4.379  -7.724  -4.109  1.00  0.00     0.007 C 
HETATM   16  C   UNL     1       4.615  -8.596  -2.856  1.00  0.00     0.022 C 
HETATM   17  C   UNL     1       3.456  -8.485  -5.071  1.00  0.00     0.022 C 
HETATM   18  C   UNL     1       5.740  -7.461  -4.776  1.00  0.00     0.022 C 
ENDBRANCH  10  15
ENDBRANCH   4   7
BRANCH   1  19
HETATM   19  C   UNL     1       1.641  -0.201  -0.003  1.00  0.00     0.086 C 
HETATM   20  C   UNL     1       0.662   0.936  -0.313  1.00  0.00     0.032 C 
BRANCH  19  21
HETATM   21  C   UNL     1       2.934   0.295   0.721  1.00  0.00     0.012 C 
HETATM   22  C   UNL     1       3.964  -0.816   1.031  1.00  0.00     0.033 C 
HETATM   23  C   UNL     1       3.543  -1.700   2.203  1.00  0.00     0.168 C 
HETATM   24  O   UNL     1       3.296  -0.908   3.365  1.00  0.00    -0.391 OA
HETATM   25  C   UNL     1       2.249   0.036   3.157  1.00  0.00     0.168 C 
HETATM   26  C   UNL     1       2.636   1.016   2.053  1.00  0.00     0.033 C 
ENDBRANCH  19  21
ENDBRANCH   1  19
TORSDOF 4
