REMARK  6 active torsions:
REMARK  status: ('A' for Active; 'I' for Inactive)
REMARK    1  A    between atoms: C_6  and  O_8 
REMARK    2  A    between atoms: O_8  and  C_9 
REMARK    3  A    between atoms: C_9  and  C_10 
REMARK       I    between atoms: C_10  and  N_12 
REMARK    4  A    between atoms: N_12  and  C_13 
REMARK    5  A    between atoms: C_13  and  C_14 
REMARK    6  A    between atoms: C_14  and  C_15 
ROOT
HETATM    1  C   UNL     1       3.056  -4.852  -3.692  1.00  0.00     0.241 C 
HETATM    2  O   UNL     1       2.654  -5.819  -3.051  1.00  0.00    -0.271 OA
HETATM    3  N   UNL     1       3.940  -4.966  -4.748  1.00  0.00    -0.359 N 
HETATM    4  H   UNL     1       4.193  -4.146  -5.284  1.00  0.00     0.162 HD
ENDROOT
BRANCH   1   5
HETATM    5  C   UNL     1       2.590  -3.418  -3.422  1.00  0.00     0.270 C 
BRANCH   5   6
HETATM    6  O   UNL     1       3.167  -2.850  -2.253  1.00  0.00    -0.377 OA
BRANCH   6   7
HETATM    7  C   UNL     1       2.669  -1.537  -1.956  1.00  0.00     0.122 C 
HETATM    8  C   UNL     1       3.174  -0.522  -2.989  1.00  0.00     0.032 C 
HETATM    9  C   UNL     1       2.845   0.918  -2.621  1.00  0.00     0.003 C 
HETATM   10  C   UNL     1       3.328   1.267  -1.218  1.00  0.00     0.004 C 
HETATM   11  C   UNL     1       2.813   0.288  -0.154  1.00  0.00    -0.016 C 
HETATM   12  C   UNL     1       1.315   0.475   0.105  1.00  0.00     0.010 C 
HETATM   13  C   UNL     1       3.150  -1.159  -0.547  1.00  0.00     0.036 C 
ENDBRANCH   6   7
ENDBRANCH   5   6
ENDBRANCH   1   5
BRANCH   3  14
HETATM   14  C   UNL     1       4.403  -6.253  -5.237  1.00  0.00     0.129 C 
BRANCH  14  15
HETATM   15  C   UNL     1       3.388  -6.956  -6.140  1.00  0.00     0.084 C 
BRANCH  15  16
HETATM   16  C   UNL     1       3.133  -6.185  -7.402  1.00  0.00     0.052 A 
HETATM   17  N   UNL     1       4.072  -5.818  -8.250  1.00  0.00    -0.357 N 
HETATM   18  C   UNL     1       3.509  -5.143  -9.320  1.00  0.00     0.012 A 
ATOM     19  HN  UNL     1       5.068  -6.004  -8.135  1.00  0.00     0.166 HD
HETATM   20  C   UNL     1       4.393  -4.653 -10.410  1.00  0.00     0.068 C 
HETATM   21  C   UNL     1       2.136  -4.999  -9.258  1.00  0.00     0.076 A 
HETATM   22  S   UNL     1       1.533  -5.725  -7.830  1.00  0.00    -0.087 SA
ENDBRANCH  15  16
ENDBRANCH  14  15
ENDBRANCH   3  14
TORSDOF 6
