REMARK  4 active torsions:
REMARK  status: ('A' for Active; 'I' for Inactive)
REMARK    1  A    between atoms: N_2  and  C_4 
REMARK    2  A    between atoms: C_4  and  C_5 
REMARK    3  A    between atoms: C_5  and  N_6 
REMARK       I    between atoms: N_6  and  C_7 
REMARK       I    between atoms: C_7  and  N_9 
REMARK    4  A    between atoms: N_9  and  C_10 
ROOT
HETATM    1  N   UNL     1       5.427  -0.756  -0.502  1.00  0.00    -0.340 N 
HETATM    2  C   UNL     1       6.468  -1.622  -0.785  1.00  0.00     0.322 C 
HETATM    3  O   UNL     1       6.715  -2.003  -1.920  1.00  0.00    -0.247 OA
HETATM    4  N   UNL     1       7.194  -1.911   0.344  1.00  0.00    -0.288 N 
HETATM    5  H   UNL     1       4.997  -0.791   0.411  1.00  0.00     0.164 HD
HETATM    6  H   UNL     1       7.074  -1.331   1.155  1.00  0.00     0.172 HD
ENDROOT
BRANCH   1   7
HETATM    7  C   UNL     1       4.584  -0.207  -1.562  1.00  0.00     0.166 C 
BRANCH   7   8
HETATM    8  C   UNL     1       3.047  -0.490  -1.356  1.00  0.00     0.174 C 
HETATM    9  C   UNL     1       2.215   0.264  -2.447  1.00  0.00     0.043 C 
HETATM   10  C   UNL     1       2.684   0.177  -3.902  1.00  0.00     0.003 C 
HETATM   11  C   UNL     1       2.421  -1.115  -4.667  1.00  0.00     0.000 C 
HETATM   12  C   UNL     1       2.072  -2.356  -3.863  1.00  0.00     0.000 C 
HETATM   13  C   UNL     1       3.101  -2.717  -2.800  1.00  0.00     0.003 C 
HETATM   14  C   UNL     1       2.830  -2.037  -1.456  1.00  0.00     0.043 C 
BRANCH   8  15
HETATM   15  N   UNL     1       2.644  -0.052   0.050  1.00  0.00     0.091 N 
HETATM   16  C   UNL     1       2.852   1.379   0.328  1.00  0.00     0.310 C 
HETATM   17  C   UNL     1       1.255  -0.374   0.416  1.00  0.00     0.310 C 
ENDBRANCH   8  15
ENDBRANCH   7   8
ENDBRANCH   1   7
BRANCH   4  18
HETATM   18  C   UNL     1       8.306  -2.707   0.296  1.00  0.00     0.168 A 
HETATM   19  N   UNL     1       8.737  -3.525  -0.636  1.00  0.00    -0.279 N 
HETATM   20  N   UNL     1       9.941  -4.116  -0.290  1.00  0.00    -0.303 N 
ATOM     21  HN  UNL     1       8.244  -3.704  -1.511  1.00  0.00     0.189 HD
HETATM   22  C   UNL     1      10.361  -3.707   0.887  1.00  0.00     0.160 A 
ATOM     23  HN  UNL     1      10.440  -4.786  -0.876  1.00  0.00     0.186 HD
HETATM   24  S   UNL     1       9.306  -2.612   1.682  1.00  0.00    -0.046 SA
ENDBRANCH   4  18
TORSDOF 4
