REMARK  6 active torsions:
REMARK  status: ('A' for Active; 'I' for Inactive)
REMARK    1  A    between atoms: C_2  and  C_3 
REMARK    2  A    between atoms: C_2  and  N_13 
REMARK    3  A    between atoms: C_3  and  C_4 
REMARK       I    between atoms: C_4  and  N_6 
REMARK    4  A    between atoms: N_13  and  C_14 
REMARK    5  A    between atoms: C_14  and  C_15 
REMARK    6  A    between atoms: C_15  and  C_16 
ROOT
HETATM    1  C   UNL     1       0.862   0.059  -0.105  1.00  0.00     0.043 C 
HETATM    2  C   UNL     1       2.396  -0.013  -0.178  1.00  0.00     0.225 C 
ENDROOT
BRANCH   2   3
HETATM    3  C   UNL     1       2.896   0.113  -1.633  1.00  0.00     0.138 C 
BRANCH   3   4
HETATM    4  C   UNL     1       2.515  -1.094  -2.486  1.00  0.00     0.221 C 
HETATM    5  O   UNL     1       1.968  -2.077  -1.983  1.00  0.00    -0.273 OA
HETATM    6  N   UNL     1       2.806  -1.038  -3.849  1.00  0.00    -0.352 N 
HETATM    7  C   UNL     1       3.642  -0.013  -4.479  1.00  0.00     0.125 C 
HETATM    8  C   UNL     1       2.433  -2.185  -4.675  1.00  0.00     0.125 C 
HETATM    9  C   UNL     1       5.101  -0.452  -4.553  1.00  0.00     0.020 C 
HETATM   10  C   UNL     1       5.452  -1.302  -5.776  1.00  0.00     0.002 C 
HETATM   11  C   UNL     1       4.417  -2.324  -6.246  1.00  0.00     0.002 C 
HETATM   12  C   UNL     1       3.631  -3.016  -5.136  1.00  0.00     0.020 C 
ENDBRANCH   3   4
ENDBRANCH   2   3
BRANCH   2  13
HETATM   13  N   UNL     1       3.020   1.062   0.626  1.00  0.00     0.088 N 
HETATM   14  H   UNL     1       2.705   1.967   0.274  1.00  0.00     0.316 HD
BRANCH  13  15
HETATM   15  C   UNL     1       2.716   1.005   2.065  1.00  0.00     0.275 C 
BRANCH  15  16
HETATM   16  C   UNL     1       3.194  -0.274   2.776  1.00  0.00     0.071 C 
BRANCH  16  17
HETATM   17  C   UNL     1       2.746  -0.319   4.194  1.00  0.00    -0.022 A 
HETATM   18  C   UNL     1       3.419   0.159   5.342  1.00  0.00     0.115 A 
HETATM   19  N   UNL     1       2.718  -0.030   6.458  1.00  0.00    -0.310 N 
HETATM   20  N   UNL     1       1.601  -0.643   6.038  1.00  0.00    -0.308 N 
ATOM     21  HN  UNL     1       2.971   0.231   7.411  1.00  0.00     0.186 HD
HETATM   22  C   UNL     1       0.568  -1.002   6.979  1.00  0.00     0.177 C 
HETATM   23  C   UNL     1       1.569  -0.841   4.693  1.00  0.00     0.118 A 
ENDBRANCH  16  17
ENDBRANCH  15  16
ENDBRANCH  13  15
ENDBRANCH   2  13
TORSDOF 6
