REMARK  4 active torsions:
REMARK  status: ('A' for Active; 'I' for Inactive)
REMARK    1  A    between atoms: N_7  and  C_8 
REMARK    2  A    between atoms: C_8  and  C_9 
REMARK       I    between atoms: C_9  and  N_11 
REMARK    3  A    between atoms: N_11  and  C_12 
REMARK    4  A    between atoms: C_16  and  C_19 
ROOT
HETATM    1  C   UNL     1       4.356  -3.766   0.493  1.00  0.00     0.237 C 
HETATM    2  O   UNL     1       3.259  -3.679   1.040  1.00  0.00    -0.272 OA
HETATM    3  N   UNL     1       4.750  -4.895  -0.210  1.00  0.00    -0.355 N 
HETATM    4  H   UNL     1       5.662  -4.908  -0.659  1.00  0.00     0.162 HD
ENDROOT
BRANCH   3   5
HETATM    5  C   UNL     1       3.819  -6.002  -0.409  1.00  0.00     0.084 C 
HETATM    6  C   UNL     1       4.556  -7.331  -0.618  1.00  0.00     0.025 C 
HETATM    7  C   UNL     1       3.643  -8.531  -0.363  1.00  0.00     0.002 C 
HETATM    8  C   UNL     1       2.796  -9.013  -1.547  1.00  0.00     0.005 C 
HETATM    9  C   UNL     1       2.159  -7.953  -2.481  1.00  0.00    -0.007 C 
HETATM   10  C   UNL     1       1.716  -6.696  -1.702  1.00  0.00     0.007 C 
HETATM   11  C   UNL     1       2.849  -5.677  -1.548  1.00  0.00     0.025 C 
BRANCH   9  12
HETATM   12  C   UNL     1       1.018  -8.550  -3.404  1.00  0.00    -0.048 C 
HETATM   13  C   UNL     1      -0.181  -9.078  -2.594  1.00  0.00     0.015 C 
HETATM   14  C   UNL     1       0.491  -7.482  -4.395  1.00  0.00     0.015 C 
HETATM   15  C   UNL     1       1.579  -9.705  -4.264  1.00  0.00     0.015 C 
ENDBRANCH   9  12
ENDBRANCH   3   5
BRANCH   1  16
HETATM   16  C   UNL     1       5.386  -2.643   0.559  1.00  0.00     0.255 C 
BRANCH  16  17
HETATM   17  N   UNL     1       6.274  -2.812   1.700  1.00  0.00    -0.249 N 
HETATM   18  C   UNL     1       7.460  -3.507   1.537  1.00  0.00     0.262 A 
HETATM   19  C   UNL     1       8.342  -3.573   2.720  1.00  0.00     0.078 A 
HETATM   20  O   UNL     1       7.817  -4.040   0.486  1.00  0.00    -0.267 OA
HETATM   21  C   UNL     1       7.955  -3.056   3.888  1.00  0.00     0.031 A 
HETATM   22  C   UNL     1       6.616  -2.437   3.934  1.00  0.00     0.022 A 
HETATM   23  C   UNL     1       6.119  -1.942   5.268  1.00  0.00     0.069 C 
HETATM   24  N   UNL     1       5.838  -2.302   2.906  1.00  0.00    -0.300 N 
ATOM     25  HN  UNL     1       4.935  -1.835   2.986  1.00  0.00     0.187 HD
ENDBRANCH  16  17
ENDBRANCH   1  16
TORSDOF 4
