REMARK  6 active torsions:
REMARK  status: ('A' for Active; 'I' for Inactive)
REMARK    1  A    between atoms: C_2  and  C_3 
REMARK    2  A    between atoms: C_3  and  N_4 
REMARK       I    between atoms: N_4  and  C_5 
REMARK    3  A    between atoms: C_5  and  C_7 
REMARK    4  A    between atoms: C_7  and  N_8 
REMARK       I    between atoms: N_8  and  C_9 
REMARK    5  A    between atoms: C_9  and  C_11 
REMARK    6  A    between atoms: C_11  and  N_13 
ROOT
HETATM    1  N   UNL     1       7.274  -4.011  -0.005  1.00  0.00    -0.350 N 
HETATM    2  C   UNL     1       8.635  -4.195  -0.085  1.00  0.00     0.242 C 
HETATM    3  O   UNL     1       9.402  -3.246  -0.249  1.00  0.00    -0.271 OA
HETATM    4  H   UNL     1       6.658  -4.817   0.027  1.00  0.00     0.163 HD
ENDROOT
BRANCH   1   5
HETATM    5  C   UNL     1       6.660  -2.690  -0.042  1.00  0.00     0.225 C 
BRANCH   5   6
HETATM    6  C   UNL     1       6.423  -2.180  -1.468  1.00  0.00     0.235 C 
HETATM    7  N   UNL     1       7.556  -2.133  -2.253  1.00  0.00    -0.360 N 
HETATM    8  H   UNL     1       8.451  -2.305  -1.796  1.00  0.00     0.162 HD
HETATM    9  O   UNL     1       5.323  -1.781  -1.844  1.00  0.00    -0.272 OA
BRANCH   7  10
HETATM   10  C   UNL     1       7.545  -1.608  -3.602  1.00  0.00     0.122 C 
BRANCH  10  11
HETATM   11  C   UNL     1       7.695  -0.089  -3.656  1.00  0.00     0.015 C 
HETATM   12  C   UNL     1       9.038   0.391  -3.124  1.00  0.00     0.006 C 
ENDBRANCH  10  11
ENDBRANCH   7  10
ENDBRANCH   5   6
ENDBRANCH   1   5
BRANCH   2  13
HETATM   13  C   UNL     1       9.102  -5.643   0.013  1.00  0.00     0.195 C 
HETATM   14  C   UNL     1      10.460  -5.840  -0.658  1.00  0.00     0.044 C 
BRANCH  13  15
HETATM   15  N   UNL     1       9.122  -6.076   1.405  1.00  0.00    -0.290 N 
HETATM   16  C   UNL     1       9.873  -5.570   2.430  1.00  0.00     0.112 A 
HETATM   17  C   UNL     1       9.582  -6.336   3.534  1.00  0.00     0.037 A 
HETATM   18  C   UNL     1       8.640  -7.274   3.078  1.00  0.00     0.108 A 
HETATM   19  N   UNL     1       8.348  -7.116   1.784  1.00  0.00    -0.309 N 
ATOM     20  HN  UNL     1       7.694  -7.654   1.216  1.00  0.00     0.186 HD
ENDBRANCH  13  15
ENDBRANCH   2  13
TORSDOF 6
