REMARK  4 active torsions:
REMARK  status: ('A' for Active; 'I' for Inactive)
REMARK    1  A    between atoms: O_2  and  C_3 
REMARK    2  A    between atoms: C_3  and  C_4 
REMARK    3  A    between atoms: C_4  and  N_5 
REMARK    4  A    between atoms: C_6  and  N_19 
ROOT
HETATM    1  N   UNL     1       4.888  -1.325  -2.041  1.00  0.00    -0.172 N 
HETATM    2  C   UNL     1       5.490  -0.812  -3.193  1.00  0.00     0.685 C 
HETATM    3  N   UNL     1       5.647  -1.799  -4.070  1.00  0.00    -0.174 N 
ATOM      4  HN  UNL     1       6.022  -1.719  -5.015  1.00  0.00     0.186 HD
HETATM    5  C   UNL     1       5.206  -2.949  -3.457  1.00  0.00     0.160 A 
HETATM    6  N   UNL     1       5.092  -4.225  -3.980  1.00  0.00    -0.287 N 
HETATM    7  C   UNL     1       5.450  -4.561  -5.340  1.00  0.00     0.163 C 
HETATM    8  C   UNL     1       4.548  -5.255  -3.197  1.00  0.00     0.332 A 
HETATM    9  O   UNL     1       4.400  -6.394  -3.650  1.00  0.00    -0.246 OA
HETATM   10  N   UNL     1       4.175  -4.939  -1.887  1.00  0.00    -0.269 N 
HETATM   11  C   UNL     1       3.582  -5.959  -1.043  1.00  0.00     0.164 C 
HETATM   12  C   UNL     1       4.336  -3.694  -1.291  1.00  0.00     0.282 A 
HETATM   13  O   UNL     1       4.083  -3.499  -0.105  1.00  0.00    -0.265 OA
HETATM   14  C   UNL     1       4.814  -2.694  -2.182  1.00  0.00     0.164 A 
ENDROOT
BRANCH   2  15
HETATM   15  N   UNL     1       5.746   0.522  -3.418  1.00  0.00    -0.214 N 
HETATM   16  C   UNL     1       6.118   1.486  -2.367  1.00  0.00     0.171 C 
HETATM   17  C   UNL     1       5.632   2.898  -2.766  1.00  0.00     0.290 C 
HETATM   18  N   UNL     1       6.275   3.379  -3.999  1.00  0.00     0.086 N 
HETATM   19  C   UNL     1       6.048   2.382  -5.071  1.00  0.00     0.290 C 
HETATM   20  H   UNL     1       7.277   3.451  -3.828  1.00  0.00     0.316 HD
HETATM   21  C   UNL     1       6.381   0.903  -4.706  1.00  0.00     0.171 C 
ENDBRANCH   2  15
BRANCH   1  22
HETATM   22  C   UNL     1       4.214  -0.622  -0.978  1.00  0.00     0.174 C 
BRANCH  22  23
HETATM   23  C   UNL     1       3.010   0.182  -1.441  1.00  0.00     0.187 C 
BRANCH  23  24
HETATM   24  O   UNL     1       2.449   0.813  -0.289  1.00  0.00    -0.394 OA
HETATM   25  C   UNL     1       1.262   1.524  -0.602  1.00  0.00     0.201 C 
ENDBRANCH  23  24
ENDBRANCH  22  23
ENDBRANCH   1  22
TORSDOF 4
