REMARK  6 active torsions:
REMARK  status: ('A' for Active; 'I' for Inactive)
REMARK    1  A    between atoms: C_2  and  C_7 
REMARK    2  A    between atoms: C_2  and  N_3 
REMARK       I    between atoms: N_3  and  C_4 
REMARK    3  A    between atoms: N_16  and  C_17 
REMARK    4  A    between atoms: C_17  and  C_18 
REMARK    5  A    between atoms: C_18  and  O_19 
REMARK    6  A    between atoms: C_18  and  C_20 
ROOT
HETATM    1  C   UNL     1       2.827  -1.296  -0.796  1.00  0.00     0.107 A 
HETATM    2  N   UNL     1       3.591  -1.169  -1.865  1.00  0.00    -0.342 N 
ATOM      3  HN  UNL     1       4.007  -0.310  -2.224  1.00  0.00     0.167 HD
HETATM    4  C   UNL     1       3.710  -2.429  -2.393  1.00  0.00     0.060 A 
HETATM    5  C   UNL     1       4.371  -2.835  -3.566  1.00  0.00     0.032 A 
HETATM    6  C   UNL     1       4.350  -4.184  -3.929  1.00  0.00     0.002 A 
HETATM    7  C   UNL     1       3.683  -5.116  -3.142  1.00  0.00     0.002 A 
HETATM    8  C   UNL     1       3.011  -4.726  -1.978  1.00  0.00     0.032 A 
HETATM    9  C   UNL     1       3.044  -3.372  -1.609  1.00  0.00     0.062 A 
HETATM   10  N   UNL     1       2.536  -2.636  -0.557  1.00  0.00    -0.330 N 
ENDROOT
BRANCH  10  11
HETATM   11  C   UNL     1       1.734  -3.086   0.571  1.00  0.00     0.167 C 
BRANCH  11  12
HETATM   12  C   UNL     1       1.972  -4.486   1.154  1.00  0.00     0.169 C 
BRANCH  12  13
HETATM   13  O   UNL     1       3.338  -4.633   1.546  1.00  0.00    -0.389 OA
HETATM   14  H   UNL     1       3.504  -4.012   2.277  1.00  0.00     0.210 HD
ENDBRANCH  12  13
BRANCH  12  15
HETATM   15  C   UNL     1       1.094  -4.860   2.338  1.00  0.00    -0.025 A 
HETATM   16  C   UNL     1       1.244  -6.145   2.899  1.00  0.00     0.010 A 
HETATM   17  C   UNL     1       0.426  -6.580   3.944  1.00  0.00     0.004 A 
HETATM   18  C   UNL     1      -0.561  -5.738   4.447  1.00  0.00     0.042 A 
HETATM   19  C   UNL     1      -0.713  -4.469   3.907  1.00  0.00     0.117 A 
HETATM   20  F   UNL     1      -1.670  -3.660   4.380  1.00  0.00    -0.206 F 
HETATM   21  C   UNL     1       0.102  -4.022   2.868  1.00  0.00     0.052 A 
ENDBRANCH  12  15
ENDBRANCH  11  12
ENDBRANCH  10  11
BRANCH   1  22
HETATM   22  C   UNL     1       2.330  -0.158   0.060  1.00  0.00     0.148 C 
HETATM   23  C   UNL     1       1.914   1.050  -0.774  1.00  0.00     0.040 C 
BRANCH  22  24
HETATM   24  N   UNL     1       3.388   0.202   0.987  1.00  0.00    -0.350 N 
HETATM   25  C   UNL     1       3.205   0.194   2.346  1.00  0.00     0.214 C 
HETATM   26  O   UNL     1       2.163  -0.167   2.884  1.00  0.00    -0.274 OA
HETATM   27  C   UNL     1       4.383   0.695   3.137  1.00  0.00     0.117 C 
HETATM   28  H   UNL     1       4.285   0.452   0.588  1.00  0.00     0.163 HD
ENDBRANCH  22  24
ENDBRANCH   1  22
TORSDOF 6
