REMARK  1 active torsions:
REMARK  status: ('A' for Active; 'I' for Inactive)
REMARK    1  A    between atoms: C_3  and  N_10 
ROOT
HETATM    1 CL   UNL     1       1.074   0.280   0.177  1.00  0.00    -0.076 Cl
HETATM    2  C   UNL     1       2.786   0.010   0.139  1.00  0.00     0.131 A 
HETATM    3  C   UNL     1       3.333  -1.218   0.058  1.00  0.00     0.075 A 
HETATM    4  C   UNL     1       4.828  -1.203   0.129  1.00  0.00     0.138 A 
HETATM    5  N   UNL     1       5.603  -0.171   0.219  1.00  0.00    -0.307 N 
ATOM      6  HN  UNL     1       6.618  -0.259   0.258  1.00  0.00     0.186 HD
HETATM    7  N   UNL     1       4.984   1.036   0.258  1.00  0.00    -0.265 N 
HETATM    8  C   UNL     1       3.629   1.238   0.239  1.00  0.00     0.283 A 
HETATM    9  O   UNL     1       3.157   2.371   0.289  1.00  0.00    -0.265 OA
HETATM   10  H   UNL     1       5.578   1.857   0.307  1.00  0.00     0.190 HD
ENDROOT
BRANCH   3  11
HETATM   11  N   UNL     1       2.737  -2.472  -0.141  1.00  0.00    -0.374 N 
HETATM   12  C   UNL     1       2.929  -3.593   0.808  1.00  0.00     0.149 C 
HETATM   13  C   UNL     1       2.899  -4.937   0.060  1.00  0.00     0.187 C 
HETATM   14  O   UNL     1       1.701  -5.091  -0.716  1.00  0.00    -0.388 OA
HETATM   15  C   UNL     1       1.584  -4.024  -1.669  1.00  0.00     0.187 C 
HETATM   16  C   UNL     1       1.523  -2.660  -0.967  1.00  0.00     0.149 C 
ENDBRANCH   3  11
TORSDOF 1
