REMARK  6 active torsions:
REMARK  status: ('A' for Active; 'I' for Inactive)
REMARK    1  A    between atoms: N_1  and  C_2 
REMARK    2  A    between atoms: C_2  and  C_3 
REMARK    3  A    between atoms: C_3  and  N_4 
REMARK    4  A    between atoms: N_4  and  S_5 
REMARK    5  A    between atoms: S_5  and  C_8 
REMARK    6  A    between atoms: C_8  and  C_9 
ROOT
HETATM    1  S   UNL     1       4.852   3.087   0.698  1.00  0.00     0.214 S 
HETATM    2  O   UNL     1       4.452   3.974  -0.374  1.00  0.00    -0.211 OA
HETATM    3  O   UNL     1       4.342   3.247   2.043  1.00  0.00    -0.211 OA
ENDROOT
BRANCH   1   4
HETATM    4  N   UNL     1       4.396   1.526   0.181  1.00  0.00    -0.218 NA
HETATM    5  H   UNL     1       4.741   1.364  -0.771  1.00  0.00     0.139 HD
BRANCH   4   6
HETATM    6  C   UNL     1       2.902   1.377   0.138  1.00  0.00     0.134 C 
BRANCH   6   7
HETATM    7  C   UNL     1       2.514  -0.057  -0.247  1.00  0.00     0.282 C 
BRANCH   7   8
HETATM    8  N   UNL     1       3.155  -0.497  -1.492  1.00  0.00     0.079 N 
HETATM    9  H   UNL     1       2.747  -1.393  -1.767  1.00  0.00     0.312 HD
HETATM   10  H   UNL     1       4.135  -0.699  -1.299  1.00  0.00     0.312 HD
ENDBRANCH   7   8
ENDBRANCH   6   7
ENDBRANCH   4   6
ENDBRANCH   1   4
BRANCH   1  11
HETATM   11  C   UNL     1       6.645   2.977   0.755  1.00  0.00     0.216 C 
BRANCH  11  12
HETATM   12  C   UNL     1       7.237   4.291   1.119  1.00  0.00     0.049 A 
HETATM   13  C   UNL     1       7.054   5.051   2.300  1.00  0.00     0.054 A 
HETATM   14  C   UNL     1       7.805   6.179   2.097  1.00  0.00     0.169 A 
HETATM   15  O   UNL     1       8.424   6.099   0.895  1.00  0.00    -0.250 OA
HETATM   16  N   UNL     1       8.083   4.906   0.280  1.00  0.00    -0.265 N 
ATOM     17  HN  UNL     1       8.408   4.565  -0.625  1.00  0.00     0.194 HD
ENDBRANCH  11  12
ENDBRANCH   1  11
TORSDOF 6
