REMARK  6 active torsions:
REMARK  status: ('A' for Active; 'I' for Inactive)
REMARK    1  A    between atoms: C_5  and  C_6 
REMARK    2  A    between atoms: C_6  and  C_7 
REMARK    3  A    between atoms: C_7  and  N_8 
REMARK       I    between atoms: N_8  and  C_9 
REMARK    4  A    between atoms: C_9  and  C_11 
REMARK    5  A    between atoms: C_11  and  N_12 
REMARK       I    between atoms: N_12  and  C_13 
REMARK    6  A    between atoms: C_13  and  C_15 
ROOT
HETATM    1  N   UNL     1       6.405  -4.118   0.108  1.00  0.00    -0.359 N 
HETATM    2  C   UNL     1       6.170  -5.477   0.128  1.00  0.00     0.235 C 
HETATM    3  O   UNL     1       5.046  -5.971   0.082  1.00  0.00    -0.272 OA
HETATM    4  H   UNL     1       7.359  -3.803  -0.061  1.00  0.00     0.162 HD
ENDROOT
BRANCH   1   5
HETATM    5  C   UNL     1       5.324  -3.144   0.083  1.00  0.00     0.129 C 
BRANCH   5   6
HETATM    6  C   UNL     1       4.846  -2.779   1.488  1.00  0.00     0.084 C 
BRANCH   6   7
HETATM    7  C   UNL     1       3.701  -1.814   1.448  1.00  0.00     0.052 A 
HETATM    8  S   UNL     1       2.080  -2.390   1.444  1.00  0.00    -0.087 SA
HETATM    9  C   UNL     1       1.516  -0.774   1.434  1.00  0.00     0.076 A 
HETATM   10  C   UNL     1       2.583   0.103   1.434  1.00  0.00     0.012 A 
HETATM   11  C   UNL     1       2.508   1.587   1.438  1.00  0.00     0.068 C 
HETATM   12  N   UNL     1       3.831  -0.503   1.436  1.00  0.00    -0.357 N 
ATOM     13  HN  UNL     1       4.721  -0.005   1.429  1.00  0.00     0.166 HD
ENDBRANCH   6   7
ENDBRANCH   5   6
ENDBRANCH   1   5
BRANCH   2  14
HETATM   14  C   UNL     1       7.435  -6.335   0.136  1.00  0.00     0.225 C 
BRANCH  14  15
HETATM   15  N   UNL     1       7.864  -6.650  -1.214  1.00  0.00    -0.352 N 
HETATM   16  C   UNL     1       8.706  -5.812  -1.910  1.00  0.00     0.225 C 
HETATM   17  O   UNL     1       9.111  -4.762  -1.414  1.00  0.00    -0.273 OA
HETATM   18  H   UNL     1       7.367  -7.385  -1.701  1.00  0.00     0.162 HD
BRANCH  16  19
HETATM   19  C   UNL     1       9.079  -6.277  -3.333  1.00  0.00     0.030 C 
HETATM   20  C   UNL     1       7.826  -6.300  -4.220  1.00  0.00     0.024 C 
HETATM   21  C   UNL     1      10.100  -5.299  -3.942  1.00  0.00     0.024 C 
HETATM   22  C   UNL     1       9.714  -7.676  -3.289  1.00  0.00     0.024 C 
ENDBRANCH  16  19
ENDBRANCH  14  15
ENDBRANCH   2  14
TORSDOF 6
