REMARK  6 active torsions:
REMARK  status: ('A' for Active; 'I' for Inactive)
REMARK    1  A    between atoms: N_5  and  C_6 
REMARK    2  A    between atoms: C_6  and  C_7 
REMARK       I    between atoms: C_7  and  N_9 
REMARK    3  A    between atoms: N_9  and  C_10 
REMARK    4  A    between atoms: C_10  and  C_12 
REMARK    5  A    between atoms: C_10  and  C_16 
REMARK    6  A    between atoms: C_12  and  N_13 
ROOT
HETATM    1  C   UNL     1       4.172  -0.824   5.337  1.00  0.00     0.050 C 
HETATM    2  C   UNL     1       4.990  -0.579   4.096  1.00  0.00    -0.034 A 
HETATM    3  C   UNL     1       4.280  -0.085   2.931  1.00  0.00     0.025 A 
HETATM    4  C   UNL     1       4.914   0.068   1.763  1.00  0.00     0.095 A 
HETATM    5  N   UNL     1       6.268  -0.184   1.645  1.00  0.00    -0.315 N 
HETATM    6  C   UNL     1       7.046  -0.556   2.740  1.00  0.00     0.269 A 
HETATM    7  O   UNL     1       8.267  -0.687   2.664  1.00  0.00    -0.266 OA
HETATM    8  C   UNL     1       6.316  -0.823   4.020  1.00  0.00     0.118 A 
HETATM    9  C   UNL     1       7.062  -1.367   5.103  1.00  0.00     0.105 C 
HETATM   10  N   UNL     1       7.624  -1.835   6.001  1.00  0.00    -0.191 NA
ENDROOT
BRANCH   5  11
HETATM   11  C   UNL     1       6.949   0.042   0.371  1.00  0.00     0.234 C 
BRANCH  11  12
HETATM   12  C   UNL     1       7.427  -1.273  -0.256  1.00  0.00     0.237 C 
HETATM   13  O   UNL     1       6.694  -1.956  -0.964  1.00  0.00    -0.272 OA
HETATM   14  N   UNL     1       8.718  -1.637   0.084  1.00  0.00    -0.339 N 
HETATM   15  H   UNL     1       9.066  -1.239   0.954  1.00  0.00     0.164 HD
BRANCH  14  16
HETATM   16  C   UNL     1       9.377  -2.854  -0.424  1.00  0.00     0.104 C 
HETATM   17  C   UNL     1       8.631  -4.125   0.016  1.00  0.00     0.054 C 
BRANCH  16  18
HETATM   18  C   UNL     1       9.425  -2.802  -1.942  1.00  0.00    -0.046 C 
BRANCH  18  19
HETATM   19  N   UNL     1       9.465  -2.759  -3.202  1.00  0.00    -0.367 N 
ATOM     20  HN2 UNL     1       9.439  -2.800  -2.183  1.00  0.00     0.165 HD
ATOM     21  HN1 UNL     1       9.497  -2.724  -4.221  1.00  0.00     0.165 HD
ENDBRANCH  18  19
ENDBRANCH  16  18
BRANCH  16  22
HETATM   22  C   UNL     1      10.828  -2.932   0.029  1.00  0.00     0.027 A 
HETATM   23  C   UNL     1      11.144  -2.984   1.516  1.00  0.00     0.009 A 
HETATM   24  C   UNL     1      11.605  -1.811   0.700  1.00  0.00     0.009 A 
ENDBRANCH  16  22
ENDBRANCH  14  16
ENDBRANCH  11  12
ENDBRANCH   5  11
TORSDOF 6
