REMARK  7 active torsions:
REMARK  status: ('A' for Active; 'I' for Inactive)
REMARK    1  A    between atoms: N_8  and  C_9 
REMARK    2  A    between atoms: C_9  and  C_10 
REMARK    3  A    between atoms: C_10  and  O_11 
REMARK    4  A    between atoms: C_10  and  C_12 
REMARK    5  A    between atoms: C_12  and  O_13 
REMARK    6  A    between atoms: O_13  and  C_14 
REMARK    7  A    between atoms: C_14  and  C_15 
ROOT
HETATM    1  C   UNL     1       2.880  -2.361  -3.754  1.00  0.00     0.049 C 
HETATM    2  C   UNL     1       3.897  -1.731  -2.841  1.00  0.00    -0.054 A 
HETATM    3  C   UNL     1       3.797  -1.968  -1.456  1.00  0.00     0.039 A 
HETATM    4  C   UNL     1       4.717  -1.373  -0.582  1.00  0.00     0.060 A 
HETATM    5  N   UNL     1       4.800  -1.464   0.786  1.00  0.00    -0.350 N 
ATOM      6  HN  UNL     1       4.202  -2.006   1.409  1.00  0.00     0.166 HD
HETATM    7  C   UNL     1       5.815  -0.702   1.117  1.00  0.00     0.184 A 
HETATM    8  N   UNL     1       6.396  -0.125   0.020  1.00  0.00    -0.339 N 
HETATM    9  C   UNL     1       5.720  -0.556  -1.095  1.00  0.00     0.062 A 
HETATM   10  C   UNL     1       5.864  -0.314  -2.466  1.00  0.00     0.039 A 
HETATM   11  C   UNL     1       4.931  -0.910  -3.342  1.00  0.00    -0.054 A 
HETATM   12  C   UNL     1       5.053  -0.641  -4.820  1.00  0.00     0.049 C 
ENDROOT
BRANCH   8  13
HETATM   13  C   UNL     1       7.538   0.772   0.064  1.00  0.00     0.164 C 
BRANCH  13  14
HETATM   14  C   UNL     1       7.126   2.250   0.148  1.00  0.00     0.160 C 
BRANCH  14  15
HETATM   15  O   UNL     1       6.397   2.525   1.350  1.00  0.00    -0.392 OA
HETATM   16  H   UNL     1       6.922   2.237   2.116  1.00  0.00     0.210 HD
ENDBRANCH  14  15
BRANCH  14  17
HETATM   17  C   UNL     1       8.349   3.174   0.097  1.00  0.00     0.201 C 
BRANCH  17  18
HETATM   18  O   UNL     1       9.072   2.944  -1.104  1.00  0.00    -0.382 OA
BRANCH  18  19
HETATM   19  C   UNL     1      10.198   3.815  -1.230  1.00  0.00     0.232 C 
BRANCH  19  20
HETATM   20  C   UNL     1      10.844   3.486  -2.522  1.00  0.00     0.076 A 
HETATM   21  C   UNL     1      10.367   3.020  -3.731  1.00  0.00     0.037 A 
HETATM   22  C   UNL     1      11.486   2.899  -4.585  1.00  0.00     0.027 A 
HETATM   23  C   UNL     1      12.574   3.307  -3.849  1.00  0.00     0.142 A 
HETATM   24  O   UNL     1      12.194   3.669  -2.596  1.00  0.00    -0.325 OA
ENDBRANCH  19  20
ENDBRANCH  18  19
ENDBRANCH  17  18
ENDBRANCH  14  17
ENDBRANCH  13  14
ENDBRANCH   8  13
TORSDOF 7
