REMARK  4 active torsions:
REMARK  status: ('A' for Active; 'I' for Inactive)
REMARK       I    between atoms: C_2  and  N_4 
REMARK    1  A    between atoms: C_7  and  N_10 
REMARK       I    between atoms: N_10  and  C_11 
REMARK    2  A    between atoms: C_11  and  C_13 
REMARK    3  A    between atoms: C_13  and  N_14 
REMARK    4  A    between atoms: C_18  and  C_21 
ROOT
HETATM    1  N   UNL     1       5.257   3.943  -1.470  1.00  0.00    -0.355 N 
HETATM    2  C   UNL     1       5.954   5.015  -0.994  1.00  0.00     0.236 C 
HETATM    3  O   UNL     1       7.181   5.006  -1.111  1.00  0.00    -0.272 OA
HETATM    4  H   UNL     1       5.869   3.286  -1.947  1.00  0.00     0.162 HD
ENDROOT
BRANCH   2   5
HETATM    5  C   UNL     1       5.222   6.100  -0.211  1.00  0.00     0.234 C 
BRANCH   5   6
HETATM    6  N   UNL     1       5.478   6.067   1.234  1.00  0.00    -0.315 N 
HETATM    7  C   UNL     1       5.865   4.900   1.873  1.00  0.00     0.095 A 
HETATM    8  C   UNL     1       6.153   4.888   3.179  1.00  0.00     0.018 A 
HETATM    9  C   UNL     1       6.056   6.103   3.936  1.00  0.00     0.023 A 
HETATM   10  C   UNL     1       5.620   7.247   3.376  1.00  0.00     0.115 A 
HETATM   11  C   UNL     1       5.278   7.265   1.930  1.00  0.00     0.263 A 
HETATM   12  O   UNL     1       4.849   8.272   1.381  1.00  0.00    -0.267 OA
BRANCH  10  13
HETATM   13  C   UNL     1       5.463   8.506   4.145  1.00  0.00     0.422 C 
HETATM   14  F   UNL     1       4.940   9.564   3.484  1.00  0.00    -0.166 F 
HETATM   15  F   UNL     1       4.659   8.305   5.229  1.00  0.00    -0.166 F 
HETATM   16  F   UNL     1       6.660   8.919   4.647  1.00  0.00    -0.166 F 
ENDBRANCH  10  13
ENDBRANCH   5   6
ENDBRANCH   2   5
BRANCH   1  17
HETATM   17  C   UNL     1       3.811   3.772  -1.584  1.00  0.00     0.087 C 
HETATM   18  C   UNL     1       3.100   3.566  -0.237  1.00  0.00     0.045 C 
HETATM   19  C   UNL     1       3.411   2.212   0.379  1.00  0.00     0.127 C 
HETATM   20  N   UNL     1       3.115   1.138  -0.558  1.00  0.00    -0.352 N 
HETATM   21  C   UNL     1       2.599  -0.047  -0.045  1.00  0.00     0.215 C 
HETATM   22  C   UNL     1       3.751   1.249  -1.869  1.00  0.00     0.127 C 
HETATM   23  C   UNL     1       2.301  -1.138  -1.037  1.00  0.00     0.117 C 
HETATM   24  O   UNL     1       2.352  -0.208   1.150  1.00  0.00    -0.274 OA
HETATM   25  C   UNL     1       3.483   2.603  -2.519  1.00  0.00     0.045 C 
ENDBRANCH   1  17
TORSDOF 4
