REMARK  4 active torsions:
REMARK  status: ('A' for Active; 'I' for Inactive)
REMARK    1  A    between atoms: O_1  and  C_2 
REMARK    2  A    between atoms: C_2  and  C_3 
REMARK    3  A    between atoms: C_2  and  C_14 
REMARK    4  A    between atoms: C_3  and  N_4 
ROOT
HETATM    1  C   UNL     1       2.410  -0.119   0.054  1.00  0.00     0.172 C 
ENDROOT
BRANCH   1   2
HETATM    2  O   UNL     1       2.964   1.035  -0.587  1.00  0.00    -0.389 OA
HETATM    3  H   UNL     1       3.902   0.853  -0.769  1.00  0.00     0.210 HD
ENDBRANCH   1   2
BRANCH   1   4
HETATM    4  C   UNL     1       3.013  -0.323   1.458  1.00  0.00     0.166 C 
BRANCH   4   5
HETATM    5  N   UNL     1       2.674   0.703   2.427  1.00  0.00    -0.338 N 
HETATM    6  C   UNL     1       3.029   2.023   2.332  1.00  0.00     0.184 A 
HETATM    7  N   UNL     1       2.594   2.723   3.352  1.00  0.00    -0.350 N 
HETATM    8  C   UNL     1       1.953   1.818   4.159  1.00  0.00     0.060 A 
ATOM      9  HN  UNL     1       2.708   3.724   3.511  1.00  0.00     0.166 HD
HETATM   10  C   UNL     1       1.313   2.027   5.389  1.00  0.00     0.032 A 
HETATM   11  C   UNL     1       1.996   0.535   3.612  1.00  0.00     0.062 A 
HETATM   12  C   UNL     1       0.744   0.932   6.047  1.00  0.00     0.002 A 
HETATM   13  C   UNL     1       0.806  -0.345   5.489  1.00  0.00     0.002 A 
HETATM   14  C   UNL     1       1.428  -0.573   4.255  1.00  0.00     0.032 A 
ENDBRANCH   4   5
ENDBRANCH   1   4
BRANCH   1  15
HETATM   15  C   UNL     1       0.900  -0.043   0.063  1.00  0.00     0.011 A 
HETATM   16  C   UNL     1       0.214   1.178   0.150  1.00  0.00     0.016 A 
HETATM   17  C   UNL     1      -1.181   1.201   0.217  1.00  0.00     0.043 A 
HETATM   18  C   UNL     1      -1.891   0.006   0.190  1.00  0.00     0.119 A 
HETATM   19  F   UNL     1      -3.228   0.032   0.259  1.00  0.00    -0.206 F 
HETATM   20  C   UNL     1      -1.236  -1.214   0.097  1.00  0.00     0.085 A 
HETATM   21  C   UNL     1       0.152  -1.226   0.040  1.00  0.00     0.128 A 
HETATM   22  F   UNL     1       0.786  -2.407  -0.023  1.00  0.00    -0.205 F 
ENDBRANCH   1  15
TORSDOF 4
