REMARK  5 active torsions:
REMARK  status: ('A' for Active; 'I' for Inactive)
REMARK       I    between atoms: N_2  and  C_3 
REMARK    1  A    between atoms: C_3  and  C_5 
REMARK    2  A    between atoms: C_5  and  N_6 
REMARK       I    between atoms: N_6  and  C_7 
REMARK    3  A    between atoms: C_7  and  C_9 
REMARK    4  A    between atoms: C_9  and  N_10 
REMARK    5  A    between atoms: C_12  and  C_17 
ROOT
HETATM    1  N   UNL     1       8.692   3.219  -2.946  1.00  0.00    -0.315 N 
HETATM    2  C   UNL     1       9.392   2.398  -3.818  1.00  0.00     0.110 C 
HETATM    3  C   UNL     1      10.736   2.405  -3.868  1.00  0.00     0.063 C 
HETATM    4  C   UNL     1      11.457   3.332  -3.011  1.00  0.00     0.023 C 
HETATM    5  C   UNL     1      10.809   4.109  -2.132  1.00  0.00     0.075 C 
HETATM    6  C   UNL     1       9.330   4.031  -2.016  1.00  0.00     0.247 C 
HETATM    7  O   UNL     1       8.750   4.639  -1.120  1.00  0.00    -0.268 OA
ENDROOT
BRANCH   1   8
HETATM    8  C   UNL     1       7.233   3.160  -2.910  1.00  0.00     0.234 C 
BRANCH   8   9
HETATM    9  C   UNL     1       6.786   2.127  -1.878  1.00  0.00     0.236 C 
HETATM   10  N   UNL     1       6.503   2.649  -0.635  1.00  0.00    -0.351 N 
HETATM   11  H   UNL     1       6.673   3.637  -0.464  1.00  0.00     0.163 HD
HETATM   12  O   UNL     1       6.765   0.925  -2.130  1.00  0.00    -0.272 OA
BRANCH  10  13
HETATM   13  C   UNL     1       6.166   1.805   0.504  1.00  0.00     0.225 C 
BRANCH  13  14
HETATM   14  C   UNL     1       7.226   1.781   1.614  1.00  0.00     0.234 C 
HETATM   15  N   UNL     1       8.330   2.579   1.396  1.00  0.00    -0.364 N 
HETATM   16  C   UNL     1       9.401   2.647   2.354  1.00  0.00     0.149 C 
HETATM   17  H   UNL     1       8.440   3.036   0.497  1.00  0.00     0.161 HD
HETATM   18  O   UNL     1       7.074   1.121   2.638  1.00  0.00    -0.272 OA
ENDBRANCH  13  14
ENDBRANCH  10  13
ENDBRANCH   8   9
ENDBRANCH   1   8
BRANCH   3  19
HETATM   19  C   UNL     1      11.503   1.485  -4.779  1.00  0.00     0.418 C 
HETATM   20  F   UNL     1      12.849   1.638  -4.673  1.00  0.00    -0.166 F 
HETATM   21  F   UNL     1      11.236   0.181  -4.516  1.00  0.00    -0.166 F 
HETATM   22  F   UNL     1      11.188   1.697  -6.082  1.00  0.00    -0.166 F 
ENDBRANCH   3  19
TORSDOF 5
