REMARK  6 active torsions:
REMARK  status: ('A' for Active; 'I' for Inactive)
REMARK    1  A    between atoms: C_2  and  C_5 
REMARK    2  A    between atoms: C_8  and  C_9 
REMARK    3  A    between atoms: C_9  and  C_10 
REMARK    4  A    between atoms: C_10  and  N_11 
REMARK       I    between atoms: N_11  and  C_12 
REMARK    5  A    between atoms: C_12  and  C_14 
REMARK    6  A    between atoms: C_14  and  C_15 
ROOT
HETATM    1  C   UNL     1       2.714  -4.949   0.559  1.00  0.00     0.084 C 
ENDROOT
BRANCH   1   2
HETATM    2  C   UNL     1       3.049  -3.507   0.757  1.00  0.00     0.052 A 
HETATM    3  S   UNL     1       4.348  -2.794  -0.110  1.00  0.00    -0.087 SA
HETATM    4  C   UNL     1       4.023  -1.303   0.659  1.00  0.00     0.077 A 
HETATM    5  C   UNL     1       2.958  -1.426   1.537  1.00  0.00     0.024 A 
HETATM    6  N   UNL     1       2.410  -2.704   1.579  1.00  0.00    -0.356 N 
ATOM      7  HN  UNL     1       1.622  -2.980   2.166  1.00  0.00     0.166 HD
BRANCH   5   8
HETATM    8  C   UNL     1       2.377  -0.325   2.412  1.00  0.00    -0.008 C 
HETATM    9  C   UNL     1       1.858   0.833   1.536  1.00  0.00     0.021 C 
HETATM   10  C   UNL     1       3.459   0.217   3.368  1.00  0.00     0.021 C 
HETATM   11  C   UNL     1       1.201  -0.841   3.267  1.00  0.00     0.021 C 
ENDBRANCH   5   8
ENDBRANCH   1   2
BRANCH   1  12
HETATM   12  C   UNL     1       1.713  -5.135  -0.577  1.00  0.00     0.129 C 
BRANCH  12  13
HETATM   13  N   UNL     1       1.457  -6.541  -0.838  1.00  0.00    -0.361 N 
HETATM   14  C   UNL     1       0.978  -6.967  -2.060  1.00  0.00     0.218 C 
HETATM   15  O   UNL     1       0.825  -6.228  -3.027  1.00  0.00    -0.274 OA
HETATM   16  H   UNL     1       1.319  -7.153  -0.043  1.00  0.00     0.162 HD
BRANCH  14  17
HETATM   17  C   UNL     1       0.643  -8.441  -2.104  1.00  0.00     0.111 C 
BRANCH  17  18
HETATM   18  C   UNL     1      -0.850  -8.699  -1.899  1.00  0.00     0.017 C 
HETATM   19  C   UNL     1      -1.399  -8.297  -0.518  1.00  0.00     0.012 C 
HETATM   20  C   UNL     1      -1.290  -9.544   0.359  1.00  0.00     0.027 C 
HETATM   21  C   UNL     1      -1.347 -10.638  -0.653  1.00  0.00    -0.030 C 
HETATM   22  C   UNL     1      -1.120 -10.180  -1.890  1.00  0.00    -0.026 C 
ENDBRANCH  17  18
ENDBRANCH  14  17
ENDBRANCH  12  13
ENDBRANCH   1  12
TORSDOF 6
