REMARK  3 active torsions:
REMARK  status: ('A' for Active; 'I' for Inactive)
REMARK       I    between atoms: N_1  and  C_2 
REMARK       I    between atoms: C_2  and  N_4 
REMARK       I    between atoms: N_4  and  C_5 
REMARK    1  A    between atoms: C_5  and  C_7 
REMARK    2  A    between atoms: C_7  and  N_8 
REMARK    3  A    between atoms: N_15  and  C_16 
ROOT
HETATM    1  N   UNL     1       6.848   1.843  -1.365  1.00  0.00    -0.256 N 
HETATM    2  C   UNL     1       7.379   0.574  -1.531  1.00  0.00     0.274 C 
HETATM    3  O   UNL     1       6.709  -0.396  -1.876  1.00  0.00    -0.266 OA
HETATM    4  C   UNL     1       8.830   0.431  -1.274  1.00  0.00     0.128 C 
HETATM    5  C   UNL     1       9.421  -0.854  -1.266  1.00  0.00     0.106 C 
HETATM    6  N   UNL     1       9.959  -1.882  -1.225  1.00  0.00    -0.191 NA
HETATM    7  C   UNL     1       9.548   1.538  -1.061  1.00  0.00     0.124 C 
HETATM    8  N   UNL     1       8.982   2.793  -1.049  1.00  0.00    -0.303 N 
HETATM    9  C   UNL     1       7.614   2.993  -1.229  1.00  0.00     0.332 C 
HETATM   10  O   UNL     1       7.098   4.109  -1.321  1.00  0.00    -0.246 OA
ENDROOT
BRANCH   1  11
HETATM   11  C   UNL     1       5.399   1.994  -1.463  1.00  0.00     0.240 C 
BRANCH  11  12
HETATM   12  C   UNL     1       4.935   2.306  -2.885  1.00  0.00     0.244 C 
HETATM   13  N   UNL     1       5.411   3.504  -3.395  1.00  0.00    -0.278 N 
HETATM   14  C   UNL     1       5.141   4.077  -4.605  1.00  0.00     0.320 C 
HETATM   15  H   UNL     1       6.030   4.072  -2.819  1.00  0.00     0.173 HD
HETATM   16  N   UNL     1       4.270   3.428  -5.403  1.00  0.00    -0.352 N 
HETATM   17  O   UNL     1       5.659   5.135  -4.944  1.00  0.00    -0.247 OA
HETATM   18  H   UNL     1       4.061   3.801  -6.317  1.00  0.00     0.160 HD
HETATM   19  H   UNL     1       3.924   2.507  -5.145  1.00  0.00     0.160 HD
HETATM   20  O   UNL     1       4.131   1.585  -3.474  1.00  0.00    -0.271 OA
ENDBRANCH  11  12
ENDBRANCH   1  11
BRANCH   8  21
HETATM   21  C   UNL     1       9.865   3.934  -0.957  1.00  0.00     0.094 A 
HETATM   22  C   UNL     1      10.844   4.132   0.175  1.00  0.00     0.028 A 
HETATM   23  C   UNL     1       9.636   5.011   0.076  1.00  0.00     0.028 A 
ENDBRANCH   8  21
TORSDOF 3
