REMARK  7 active torsions:
REMARK  status: ('A' for Active; 'I' for Inactive)
REMARK    1  A    between atoms: C_2  and  N_3 
REMARK    2  A    between atoms: N_4  and  C_14 
REMARK    3  A    between atoms: C_11  and  C_25 
REMARK    4  A    between atoms: C_14  and  C_18 
REMARK    5  A    between atoms: C_18  and  O_23 
REMARK    6  A    between atoms: C_19  and  O_24 
REMARK    7  A    between atoms: C_25  and  O_28 
ROOT
HETATM    1  C   UNL     1       0.388  -0.808  -0.069  1.00  0.00     0.122 A 
HETATM    2  C   UNL     1      -0.757  -1.634  -0.070  1.00  0.00     0.136 A 
HETATM    3  N   UNL     1       1.415   1.116  -0.064  1.00  0.00    -0.324 N 
HETATM    4  C   UNL     1       0.173   0.559  -0.151  1.00  0.00     0.140 A 
HETATM    5  N   UNL     1       1.737  -1.073   0.052  1.00  0.00    -0.346 N 
ATOM      6  HN  UNL     1       2.183  -1.987   0.131  1.00  0.00     0.167 HD
HETATM    7  C   UNL     1       2.324   0.098   0.044  1.00  0.00     0.185 A 
HETATM    8  N   UNL     1      -1.956  -1.008  -0.246  1.00  0.00    -0.337 N 
ATOM      9  HN  UNL     1      -2.809  -1.559  -0.345  1.00  0.00     0.168 HD
HETATM   10  N   UNL     1      -0.996   1.211  -0.249  1.00  0.00    -0.336 N 
ATOM     11  HN  UNL     1      -1.097   2.225  -0.288  1.00  0.00     0.168 HD
HETATM   12  C   UNL     1      -2.015   0.335  -0.289  1.00  0.00     0.183 A 
ENDROOT
BRANCH   2  13
HETATM   13  N   UNL     1      -0.733  -2.990   0.130  1.00  0.00    -0.356 N 
HETATM   14  C   UNL     1      -1.890  -3.736   0.639  1.00  0.00     0.112 C 
HETATM   15  C   UNL     1      -1.374  -5.198   0.705  1.00  0.00     0.061 C 
HETATM   16  C   UNL     1       0.031  -5.197   0.090  1.00  0.00     0.140 C 
HETATM   17  C   UNL     1       0.498  -3.747   0.266  1.00  0.00     0.157 C 
BRANCH  14  18
HETATM   18  C   UNL     1      -2.318  -3.282   2.062  1.00  0.00     0.192 C 
BRANCH  18  19
HETATM   19  O   UNL     1      -3.029  -2.044   2.039  1.00  0.00    -0.394 OA
HETATM   20  C   UNL     1      -3.173  -1.455   3.319  1.00  0.00     0.201 C 
ENDBRANCH  18  19
ENDBRANCH  14  18
BRANCH  16  21
HETATM   21  O   UNL     1       0.019  -5.507  -1.309  1.00  0.00    -0.389 OA
HETATM   22  C   UNL     1      -0.189  -6.879  -1.597  1.00  0.00     0.202 C 
ENDBRANCH  16  21
ENDBRANCH   2  13
BRANCH   3  23
HETATM   23  C   UNL     1       1.700   2.531   0.066  1.00  0.00     0.169 C 
BRANCH  23  24
HETATM   24  C   UNL     1       2.089   3.255  -1.244  1.00  0.00     0.078 C 
HETATM   25  C   UNL     1       2.448   4.715  -0.907  1.00  0.00     0.066 C 
HETATM   26  C   UNL     1       1.206   5.567  -0.703  1.00  0.00     0.170 C 
HETATM   27  O   UNL     1       0.418   5.547  -1.885  1.00  0.00    -0.391 OA
HETATM   28  C   UNL     1      -0.092   4.247  -2.175  1.00  0.00     0.170 C 
HETATM   29  C   UNL     1       1.032   3.231  -2.363  1.00  0.00     0.066 C 
BRANCH  24  30
HETATM   30  O   UNL     1       3.298   2.644  -1.733  1.00  0.00    -0.388 OA
HETATM   31  H   UNL     1       3.073   1.778  -2.119  1.00  0.00     0.210 HD
ENDBRANCH  24  30
ENDBRANCH  23  24
ENDBRANCH   3  23
TORSDOF 7
