REMARK  5 active torsions:
REMARK  status: ('A' for Active; 'I' for Inactive)
REMARK    1  A    between atoms: C_2  and  C_4 
REMARK    2  A    between atoms: C_4  and  N_5 
REMARK    3  A    between atoms: C_9  and  C_10 
REMARK    4  A    between atoms: C_10  and  N_11 
REMARK       I    between atoms: N_11  and  C_12 
REMARK       I    between atoms: C_12  and  N_14 
REMARK    5  A    between atoms: N_14  and  C_15 
ROOT
HETATM    1  N   UNL     1       6.489  -3.921  -0.524  1.00  0.00    -0.340 N 
HETATM    2  C   UNL     1       6.877  -4.383   0.712  1.00  0.00     0.320 C 
HETATM    3  O   UNL     1       6.064  -4.779   1.539  1.00  0.00    -0.247 OA
HETATM    4  N   UNL     1       8.238  -4.311   0.895  1.00  0.00    -0.306 N 
HETATM    5  H   UNL     1       7.137  -3.362  -1.059  1.00  0.00     0.164 HD
HETATM    6  H   UNL     1       8.808  -3.882   0.184  1.00  0.00     0.171 HD
ENDROOT
BRANCH   1   7
HETATM    7  C   UNL     1       5.082  -3.674  -0.797  1.00  0.00     0.158 C 
BRANCH   7   8
HETATM    8  C   UNL     1       4.659  -2.231  -0.469  1.00  0.00     0.167 C 
HETATM    9  O   UNL     1       5.465  -1.336  -1.270  1.00  0.00    -0.381 OA
HETATM   10  C   UNL     1       5.086   0.029  -1.042  1.00  0.00     0.198 C 
HETATM   11  C   UNL     1       5.154   0.413   0.449  1.00  0.00     0.298 C 
HETATM   12  N   UNL     1       4.406  -0.492   1.351  1.00  0.00     0.093 N 
HETATM   13  C   UNL     1       4.809  -1.880   1.029  1.00  0.00     0.305 C 
BRANCH  12  14
HETATM   14  C   UNL     1       2.954  -0.256   1.295  1.00  0.00     0.276 C 
BRANCH  14  15
HETATM   15  C   UNL     1       2.107  -1.145   2.240  1.00  0.00     0.006 C 
HETATM   16  C   UNL     1       2.511  -0.996   3.708  1.00  0.00     0.011 C 
HETATM   17  C   UNL     1       0.619  -0.818   2.081  1.00  0.00     0.011 C 
ENDBRANCH  14  15
ENDBRANCH  12  14
ENDBRANCH   7   8
ENDBRANCH   1   7
BRANCH   4  18
HETATM   18  C   UNL     1       8.858  -4.704   2.065  1.00  0.00     0.070 A 
HETATM   19  C   UNL     1       8.347  -5.360   3.211  1.00  0.00     0.138 A 
HETATM   20  N   UNL     1       9.285  -5.560   4.142  1.00  0.00    -0.310 N 
HETATM   21  N   UNL     1      10.387  -5.026   3.598  1.00  0.00    -0.310 N 
ATOM     22  HN  UNL     1       9.186  -6.012   5.051  1.00  0.00     0.186 HD
HETATM   23  C   UNL     1      10.189  -4.510   2.347  1.00  0.00     0.138 A 
HETATM   24  H   UNL     1      11.242  -5.047   4.141  1.00  0.00     0.186 HD
ENDBRANCH   4  18
TORSDOF 5
