REMARK  5 active torsions:
REMARK  status: ('A' for Active; 'I' for Inactive)
REMARK    1  A    between atoms: C_2  and  N_3 
REMARK       I    between atoms: N_6  and  C_9 
REMARK       I    between atoms: C_9  and  N_11 
REMARK    2  A    between atoms: N_11  and  C_12 
REMARK    3  A    between atoms: C_12  and  C_13 
REMARK    4  A    between atoms: C_13  and  C_14 
REMARK    5  A    between atoms: C_18  and  C_19 
ROOT
HETATM    1  N   UNL     1       2.988  -0.203   1.403  1.00  0.00     0.091 N 
HETATM    2  C   UNL     1       4.429   0.157   1.404  1.00  0.00     0.292 C 
HETATM    3  C   UNL     1       5.331  -0.769   0.557  1.00  0.00     0.158 C 
HETATM    4  N   UNL     1       5.106  -2.185   0.882  1.00  0.00    -0.331 N 
HETATM    5  C   UNL     1       3.697  -2.585   0.892  1.00  0.00     0.158 C 
HETATM    6  C   UNL     1       2.873  -1.632   1.780  1.00  0.00     0.292 C 
HETATM    7  C   UNL     1       6.046  -3.090   1.325  1.00  0.00     0.318 C 
HETATM    8  O   UNL     1       5.761  -4.241   1.654  1.00  0.00    -0.247 OA
HETATM    9  N   UNL     1       7.325  -2.621   1.412  1.00  0.00    -0.343 N 
HETATM   10  H   UNL     1       7.607  -1.967   0.692  1.00  0.00     0.164 HD
ENDROOT
BRANCH   9  11
HETATM   11  C   UNL     1       8.406  -3.491   1.844  1.00  0.00     0.131 C 
BRANCH  11  12
HETATM   12  C   UNL     1       9.026  -4.270   0.682  1.00  0.00     0.084 C 
BRANCH  12  13
HETATM   13  C   UNL     1       9.742  -3.357  -0.275  1.00  0.00     0.052 A 
HETATM   14  N   UNL     1       9.355  -2.133  -0.583  1.00  0.00    -0.363 N 
HETATM   15  C   UNL     1      10.267  -1.561  -1.449  1.00  0.00     0.103 A 
ATOM     16  HN  UNL     1       8.511  -1.679  -0.235  1.00  0.00     0.165 HD
HETATM   17  C   UNL     1      11.337  -2.357  -1.805  1.00  0.00    -0.001 A 
HETATM   18  S   UNL     1      11.178  -3.891  -1.056  1.00  0.00    -0.080 SA
BRANCH  17  19
HETATM   19  C   UNL     1      12.512  -2.038  -2.670  1.00  0.00     0.043 C 
HETATM   20  C   UNL     1      12.254  -2.357  -4.134  1.00  0.00     0.010 C 
ENDBRANCH  17  19
ENDBRANCH  12  13
ENDBRANCH  11  12
ENDBRANCH   9  11
BRANCH   1  21
HETATM   21  C   UNL     1       2.372   0.116   0.105  1.00  0.00     0.268 C 
HETATM   22  C   UNL     1       0.875  -0.169   0.047  1.00  0.00     0.037 C 
ENDBRANCH   1  21
TORSDOF 5
