REMARK  4 active torsions:
REMARK  status: ('A' for Active; 'I' for Inactive)
REMARK    1  A    between atoms: C_2  and  C_4 
REMARK    2  A    between atoms: C_4  and  N_5 
REMARK    3  A    between atoms: C_8  and  N_11 
REMARK       I    between atoms: N_11  and  C_12 
REMARK       I    between atoms: C_12  and  N_14 
REMARK    4  A    between atoms: N_14  and  C_15 
ROOT
HETATM    1  N   UNL     1       6.875  -2.132  -0.586  1.00  0.00    -0.338 N 
HETATM    2  C   UNL     1       7.580  -2.883   0.331  1.00  0.00     0.322 C 
HETATM    3  O   UNL     1       7.104  -3.278   1.386  1.00  0.00    -0.247 OA
HETATM    4  N   UNL     1       8.834  -3.179  -0.144  1.00  0.00    -0.293 N 
HETATM    5  H   UNL     1       7.413  -1.420  -1.062  1.00  0.00     0.164 HD
HETATM    6  H   UNL     1       8.908  -3.319  -1.140  1.00  0.00     0.172 HD
ENDROOT
BRANCH   1   7
HETATM    7  C   UNL     1       5.433  -1.947  -0.468  1.00  0.00     0.089 C 
HETATM    8  C   UNL     1       4.826  -1.656  -1.845  1.00  0.00     0.055 C 
HETATM    9  C   UNL     1       4.893  -0.174  -2.224  1.00  0.00     0.274 C 
HETATM   10  N   UNL     1       4.329   0.718  -1.199  1.00  0.00     0.088 N 
HETATM   11  C   UNL     1       5.048   0.526   0.066  1.00  0.00     0.274 C 
HETATM   12  C   UNL     1       5.037  -0.909   0.589  1.00  0.00     0.055 C 
BRANCH  10  13
HETATM   13  C   UNL     1       2.862   0.594  -1.127  1.00  0.00     0.276 C 
BRANCH  13  14
HETATM   14  C   UNL     1       2.131   1.479  -0.091  1.00  0.00     0.006 C 
HETATM   15  C   UNL     1       2.427   2.969  -0.275  1.00  0.00     0.011 C 
HETATM   16  C   UNL     1       0.617   1.244  -0.185  1.00  0.00     0.011 C 
ENDBRANCH  13  14
ENDBRANCH  10  13
ENDBRANCH   1   7
BRANCH   4  17
HETATM   17  C   UNL     1       9.753  -3.903   0.582  1.00  0.00     0.132 A 
HETATM   18  C   UNL     1       9.977  -3.884   1.977  1.00  0.00     0.084 A 
HETATM   19  C   UNL     1      11.027  -4.744   2.165  1.00  0.00     0.076 A 
HETATM   20  C   UNL     1      11.813  -5.175   3.332  1.00  0.00     0.079 C 
HETATM   21  O   UNL     1      11.391  -5.271   0.967  1.00  0.00    -0.241 OA
HETATM   22  N   UNL     1      10.624  -4.706  -0.035  1.00  0.00    -0.245 N 
ATOM     23  HN  UNL     1      10.706  -4.869  -1.039  1.00  0.00     0.196 HD
ENDBRANCH   4  17
TORSDOF 4
