REMARK  4 active torsions:
REMARK  status: ('A' for Active; 'I' for Inactive)
REMARK       I    between atoms: C_2  and  N_3 
REMARK    1  A    between atoms: C_2  and  C_12 
REMARK    2  A    between atoms: N_3  and  C_4 
REMARK    3  A    between atoms: C_4  and  C_5 
REMARK    4  A    between atoms: C_5  and  N_6 
ROOT
HETATM    1  O   UNL     1       1.235  -0.072   0.650  1.00  0.00    -0.273 OA
HETATM    2  C   UNL     1       2.434   0.013   0.406  1.00  0.00     0.222 C 
HETATM    3  N   UNL     1       3.070   1.233   0.289  1.00  0.00    -0.359 N 
HETATM    4  H   UNL     1       3.995   1.255  -0.122  1.00  0.00     0.162 HD
ENDROOT
BRANCH   3   5
HETATM    5  C   UNL     1       2.312   2.474   0.356  1.00  0.00     0.143 C 
BRANCH   5   6
HETATM    6  C   UNL     1       1.602   2.694   1.695  1.00  0.00     0.148 C 
BRANCH   6   7
HETATM    7  N   UNL     1       0.851   3.928   1.722  1.00  0.00    -0.350 N 
HETATM    8  C   UNL     1       1.283   5.131   2.200  1.00  0.00     0.108 A 
HETATM    9  C   UNL     1       0.208   5.975   2.061  1.00  0.00     0.106 A 
HETATM   10  N   UNL     1      -0.860   5.311   1.504  1.00  0.00    -0.361 N 
HETATM   11  C   UNL     1      -0.446   4.080   1.325  1.00  0.00     0.182 A 
ATOM     12  HN  UNL     1      -1.778   5.694   1.278  1.00  0.00     0.166 HD
ENDBRANCH   6   7
ENDBRANCH   5   6
ENDBRANCH   3   5
BRANCH   2  13
HETATM   13  C   UNL     1       3.316  -1.201   0.133  1.00  0.00     0.081 C 
HETATM   14  C   UNL     1       3.307  -1.449  -1.383  1.00  0.00     0.018 C 
HETATM   15  C   UNL     1       3.644  -2.867  -1.847  1.00  0.00     0.027 C 
HETATM   16  C   UNL     1       3.513  -3.944  -0.821  1.00  0.00    -0.031 C 
HETATM   17  C   UNL     1       3.148  -3.729   0.450  1.00  0.00    -0.030 C 
HETATM   18  C   UNL     1       2.825  -2.379   0.990  1.00  0.00     0.041 C 
ENDBRANCH   2  13
TORSDOF 4
