REMARK  7 active torsions:
REMARK  status: ('A' for Active; 'I' for Inactive)
REMARK    1  A    between atoms: O_2  and  C_3 
REMARK    2  A    between atoms: C_3  and  C_4 
REMARK    3  A    between atoms: C_4  and  N_5 
REMARK    4  A    between atoms: C_7  and  C_12 
REMARK       I    between atoms: C_12  and  N_14 
REMARK    5  A    between atoms: N_17  and  C_18 
REMARK    6  A    between atoms: C_18  and  C_19 
REMARK    7  A    between atoms: C_19  and  O_22 
ROOT
HETATM    1  C   UNL     1       7.274  -2.495   4.710  1.00  0.00     0.255 C 
HETATM    2  O   UNL     1       6.180  -2.666   5.238  1.00  0.00    -0.267 OA
HETATM    3  N   UNL     1       7.950  -1.278   4.739  1.00  0.00    -0.345 N 
HETATM    4  C   UNL     1       7.330  -0.133   5.417  1.00  0.00     0.156 C 
HETATM    5  C   UNL     1       7.577   1.182   4.642  1.00  0.00     0.292 C 
HETATM    6  N   UNL     1       8.988   1.436   4.259  1.00  0.00     0.094 N 
HETATM    7  C   UNL     1       9.490   0.238   3.546  1.00  0.00     0.292 C 
HETATM    8  C   UNL     1       9.357  -1.053   4.380  1.00  0.00     0.156 C 
ENDROOT
BRANCH   1   9
HETATM    9  C   UNL     1       7.967  -3.655   4.064  1.00  0.00     0.048 C 
HETATM   10  C   UNL     1       8.536  -3.533   2.855  1.00  0.00     0.111 C 
HETATM   11  N   UNL     1       9.431  -4.486   2.380  1.00  0.00    -0.322 N 
HETATM   12  C   UNL     1       9.655  -5.685   3.063  1.00  0.00     0.247 C 
HETATM   13  C   UNL     1       8.837  -5.899   4.288  1.00  0.00     0.075 C 
HETATM   14  O   UNL     1      10.442  -6.561   2.715  1.00  0.00    -0.268 OA
HETATM   15  C   UNL     1       8.051  -4.921   4.758  1.00  0.00     0.024 C 
BRANCH  11  16
HETATM   16  C   UNL     1      10.287  -4.154   1.232  1.00  0.00     0.158 C 
BRANCH  16  17
HETATM   17  C   UNL     1      11.283  -3.000   1.478  1.00  0.00     0.187 C 
BRANCH  17  18
HETATM   18  O   UNL     1      12.174  -3.289   2.556  1.00  0.00    -0.394 OA
HETATM   19  C   UNL     1      13.139  -2.258   2.743  1.00  0.00     0.201 C 
ENDBRANCH  17  18
ENDBRANCH  16  17
ENDBRANCH  11  16
ENDBRANCH   1   9
BRANCH   6  20
HETATM   20  C   UNL     1       9.892   1.745   5.391  1.00  0.00     0.309 C 
BRANCH  20  21
HETATM   21  C   UNL     1       9.598   2.977   6.289  1.00  0.00     0.077 C 
HETATM   22  C   UNL     1      10.723   3.095   7.327  1.00  0.00     0.047 C 
HETATM   23  C   UNL     1       9.492   4.266   5.478  1.00  0.00     0.047 C 
BRANCH  21  24
HETATM   24  O   UNL     1       8.382   2.796   7.022  1.00  0.00    -0.389 OA
HETATM   25  H   UNL     1       8.470   1.989   7.557  1.00  0.00     0.210 HD
ENDBRANCH  21  24
ENDBRANCH  20  21
ENDBRANCH   6  20
TORSDOF 7
