REMARK  2 active torsions:
REMARK  status: ('A' for Active; 'I' for Inactive)
REMARK    1  A    between atoms: C_2  and  C_4 
REMARK    2  A    between atoms: C_8  and  C_11 
ROOT
HETATM    1  C   UNL     1       2.747   1.033   0.995  1.00  0.00     0.100 A 
HETATM    2  N   UNL     1       2.559   2.353   0.883  1.00  0.00    -0.287 N 
ATOM      3  HN  UNL     1       2.116   2.881   0.131  1.00  0.00     0.188 HD
HETATM    4  N   UNL     1       3.108   2.798   2.023  1.00  0.00    -0.285 N 
HETATM    5  C   UNL     1       3.604   1.771   2.778  1.00  0.00     0.128 A 
HETATM    6  N   UNL     1       3.361   0.635   2.157  1.00  0.00    -0.331 N 
ATOM      7  HN  UNL     1       3.577  -0.313   2.465  1.00  0.00     0.168 HD
HETATM    8  H   UNL     1       3.151   3.794   2.222  1.00  0.00     0.188 HD
ENDROOT
BRANCH   5   9
HETATM    9  C   UNL     1       4.316   1.992   4.076  1.00  0.00     0.218 C 
HETATM   10  C   UNL     1       3.859   3.259   4.836  1.00  0.00     0.309 C 
HETATM   11  N   UNL     1       4.239   4.510   4.136  1.00  0.00     0.088 N 
HETATM   12  C   UNL     1       5.702   4.490   3.923  1.00  0.00     0.295 C 
HETATM   13  H   UNL     1       4.014   5.303   4.742  1.00  0.00     0.316 HD
HETATM   14  C   UNL     1       6.177   3.225   3.192  1.00  0.00     0.198 C 
HETATM   15  O   UNL     1       5.739   2.025   3.844  1.00  0.00    -0.375 OA
ENDBRANCH   5   9
BRANCH   1  16
HETATM   16  C   UNL     1       2.342   0.065  -0.068  1.00  0.00     0.047 C 
HETATM   17  C   UNL     1       3.544  -0.734  -0.574  1.00  0.00     0.017 C 
HETATM   18  C   UNL     1       1.243  -0.874   0.428  1.00  0.00     0.017 C 
ENDBRANCH   1  16
TORSDOF 2
