REMARK  4 active torsions:
REMARK  status: ('A' for Active; 'I' for Inactive)
REMARK    1  A    between atoms: C_2  and  N_5 
REMARK       I    between atoms: N_5  and  C_6 
REMARK       I    between atoms: C_6  and  N_8 
REMARK    2  A    between atoms: C_11  and  N_14 
REMARK       I    between atoms: N_14  and  C_15 
REMARK    3  A    between atoms: C_15  and  C_17 
REMARK    4  A    between atoms: C_17  and  C_18 
ROOT
HETATM    1  N   UNL     1       3.602   1.451   1.219  1.00  0.00    -0.335 N 
HETATM    2  C   UNL     1       4.505   1.692   0.213  1.00  0.00     0.318 C 
HETATM    3  O   UNL     1       4.957   0.794  -0.491  1.00  0.00    -0.247 OA
HETATM    4  N   UNL     1       4.920   3.016   0.075  1.00  0.00    -0.334 N 
HETATM    5  C   UNL     1       4.540   4.112   0.966  1.00  0.00     0.129 C 
HETATM    6  C   UNL     1       4.611   5.475   0.281  1.00  0.00     0.045 C 
HETATM    7  C   UNL     1       5.943   5.709  -0.428  1.00  0.00     0.087 C 
HETATM    8  C   UNL     1       6.248   4.551  -1.376  1.00  0.00     0.045 C 
HETATM    9  C   UNL     1       6.169   3.205  -0.669  1.00  0.00     0.129 C 
HETATM   10  H   UNL     1       2.977   2.211   1.420  1.00  0.00     0.165 HD
ENDROOT
BRANCH   7  11
HETATM   11  N   UNL     1       7.019   5.942   0.531  1.00  0.00    -0.356 N 
HETATM   12  C   UNL     1       8.138   6.682   0.201  1.00  0.00     0.222 C 
HETATM   13  O   UNL     1       8.294   7.210  -0.891  1.00  0.00    -0.273 OA
HETATM   14  H   UNL     1       7.093   5.327   1.333  1.00  0.00     0.162 HD
BRANCH  12  15
HETATM   15  C   UNL     1       9.152   6.805   1.317  1.00  0.00     0.142 C 
BRANCH  15  16
HETATM   16  C   UNL     1      10.233   5.761   1.259  1.00  0.00    -0.034 A 
HETATM   17  C   UNL     1      10.435   4.863   2.306  1.00  0.00     0.010 A 
HETATM   18  C   UNL     1      11.483   3.948   2.240  1.00  0.00     0.018 A 
HETATM   19  C   UNL     1      12.294   3.962   1.120  1.00  0.00     0.087 A 
HETATM   20  N   UNL     1      12.127   4.809   0.083  1.00  0.00    -0.375 N 
HETATM   21  C   UNL     1      11.101   5.687   0.171  1.00  0.00     0.095 A 
ATOM     22  HN  UNL     1      12.745   4.788  -0.729  1.00  0.00     0.164 HD
ENDBRANCH  15  16
ENDBRANCH  12  15
ENDBRANCH   7  11
BRANCH   1  23
HETATM   23  C   UNL     1       3.031   0.120   1.497  1.00  0.00     0.023 C 
HETATM   24  C   UNL     1       4.122  -0.928   1.781  1.00  0.00     0.037 C 
HETATM   25  C   UNL     1       2.143  -0.334   0.327  1.00  0.00     0.037 C 
HETATM   26  C   UNL     1       2.157   0.234   2.760  1.00  0.00     0.037 C 
ENDBRANCH   1  23
TORSDOF 4
