REMARK  3 active torsions:
REMARK  status: ('A' for Active; 'I' for Inactive)
REMARK    1  A    between atoms: C_8  and  N_9 
REMARK       I    between atoms: N_9  and  C_10 
REMARK       I    between atoms: C_10  and  N_12 
REMARK    2  A    between atoms: N_12  and  C_13 
REMARK    3  A    between atoms: C_13  and  C_14 
ROOT
HETATM    1  N   UNL     1       2.369  -2.498  -1.183  1.00  0.00    -0.140 N 
HETATM    2  C   UNL     1       1.174  -2.767  -0.585  1.00  0.00     0.334 C 
HETATM    3  O   UNL     1       0.530  -1.832  -0.109  1.00  0.00    -0.247 OA
HETATM    4  N   UNL     1       0.739  -4.063  -0.561  1.00  0.00    -0.342 N 
HETATM    5  H   UNL     1       2.610  -1.518  -1.186  1.00  0.00     0.189 HD
HETATM    6  H   UNL     1       1.434  -4.774  -0.780  1.00  0.00     0.164 HD
ENDROOT
BRANCH   1   7
HETATM    7  C   UNL     1       3.181  -3.420  -1.796  1.00  0.00     0.703 A 
HETATM    8  N   UNL     1       4.349  -3.118  -2.447  1.00  0.00    -0.127 N 
HETATM    9  C   UNL     1       4.998  -1.840  -2.614  1.00  0.00     0.197 C 
HETATM   10  N   UNL     1       4.910  -4.221  -2.984  1.00  0.00    -0.280 N 
HETATM   11  C   UNL     1       4.042  -5.161  -2.609  1.00  0.00     0.215 A 
ATOM     12  HN  UNL     1       5.767  -4.311  -3.530  1.00  0.00     0.188 HD
HETATM   13  N   UNL     1       2.986  -4.720  -1.868  1.00  0.00    -0.185 N 
ATOM     14  HN  UNL     1       2.225  -5.267  -1.465  1.00  0.00     0.185 HD
ENDBRANCH   1   7
BRANCH   4  15
HETATM   15  C   UNL     1      -0.492  -4.405   0.114  1.00  0.00     0.133 C 
BRANCH  15  16
HETATM   16  C   UNL     1      -0.974  -5.894   0.067  1.00  0.00    -0.028 C 
HETATM   17  C   UNL     1      -2.321  -5.878   0.835  1.00  0.00     0.016 C 
HETATM   18  C   UNL     1       0.059  -6.816   0.771  1.00  0.00     0.011 C 
HETATM   19  C   UNL     1      -0.439  -8.209   1.176  1.00  0.00     0.001 C 
HETATM   20  C   UNL     1      -0.508  -9.277   0.088  1.00  0.00     0.000 C 
HETATM   21  C   UNL     1      -0.663  -8.830  -1.359  1.00  0.00     0.000 C 
HETATM   22  C   UNL     1      -1.724  -7.764  -1.606  1.00  0.00     0.001 C 
HETATM   23  C   UNL     1      -1.216  -6.332  -1.397  1.00  0.00     0.011 C 
ENDBRANCH  15  16
ENDBRANCH   4  15
TORSDOF 3
