REMARK  4 active torsions:
REMARK  status: ('A' for Active; 'I' for Inactive)
REMARK       I    between atoms: N_2  and  C_3 
REMARK    1  A    between atoms: C_3  and  C_5 
REMARK    2  A    between atoms: C_5  and  N_6 
REMARK    3  A    between atoms: C_8  and  S_13 
REMARK    4  A    between atoms: S_13  and  N_16 
ROOT
HETATM    1  N   UNL     1       5.051   1.569   2.206  1.00  0.00    -0.314 N 
HETATM    2  C   UNL     1       4.796   2.936   2.240  1.00  0.00     0.119 A 
HETATM    3  C   UNL     1       5.197   3.692   3.276  1.00  0.00     0.090 A 
HETATM    4  C   UNL     1       5.914   3.075   4.374  1.00  0.00     0.032 A 
HETATM    5  C   UNL     1       6.214   1.770   4.346  1.00  0.00     0.076 A 
HETATM    6  C   UNL     1       5.803   0.928   3.188  1.00  0.00     0.247 A 
HETATM    7  O   UNL     1       6.139  -0.251   3.137  1.00  0.00    -0.268 OA
ENDROOT
BRANCH   3   8
HETATM    8  S   UNL     1       4.834   5.406   3.273  1.00  0.00     0.245 S 
HETATM    9  O   UNL     1       5.808   6.090   4.103  1.00  0.00    -0.206 OA
HETATM   10  O   UNL     1       4.612   5.861   1.914  1.00  0.00    -0.206 OA
BRANCH   8  11
HETATM   11  N   UNL     1       3.338   5.565   4.077  1.00  0.00    -0.206 NA
HETATM   12  C   UNL     1       2.152   4.922   3.454  1.00  0.00     0.107 C 
HETATM   13  C   UNL     1       0.970   5.843   3.751  1.00  0.00     0.017 C 
HETATM   14  C   UNL     1       1.488   6.834   4.777  1.00  0.00     0.017 C 
HETATM   15  C   UNL     1       2.960   6.955   4.425  1.00  0.00     0.107 C 
ENDBRANCH   8  11
ENDBRANCH   3   8
BRANCH   1  16
HETATM   16  C   UNL     1       4.535   0.771   1.091  1.00  0.00     0.234 C 
BRANCH  16  17
HETATM   17  C   UNL     1       5.499   0.720  -0.092  1.00  0.00     0.235 C 
HETATM   18  N   UNL     1       6.711   0.120   0.170  1.00  0.00    -0.364 N 
HETATM   19  C   UNL     1       7.700  -0.039  -0.863  1.00  0.00     0.149 C 
HETATM   20  H   UNL     1       6.870  -0.286   1.091  1.00  0.00     0.161 HD
HETATM   21  O   UNL     1       5.178   1.130  -1.205  1.00  0.00    -0.272 OA
ENDBRANCH  16  17
ENDBRANCH   1  16
TORSDOF 4
