REMARK  6 active torsions:
REMARK  status: ('A' for Active; 'I' for Inactive)
REMARK    1  A    between atoms: N_2  and  C_16 
REMARK    2  A    between atoms: C_4  and  N_8 
REMARK    3  A    between atoms: N_8  and  C_14 
REMARK    4  A    between atoms: N_9  and  C_21 
REMARK    5  A    between atoms: C_16  and  C_19 
REMARK    6  A    between atoms: C_19  and  O_25 
ROOT
HETATM    1  C   UNL     1       0.320  -0.764   0.205  1.00  0.00     0.122 A 
HETATM    2  N   UNL     1       1.354   1.171   0.171  1.00  0.00    -0.324 N 
HETATM    3  C   UNL     1       0.114   0.603   0.082  1.00  0.00     0.140 A 
HETATM    4  C   UNL     1      -0.829  -1.603   0.136  1.00  0.00     0.135 A 
HETATM    5  N   UNL     1       1.671  -1.014   0.396  1.00  0.00    -0.346 N 
ATOM      6  HN  UNL     1       2.120  -1.923   0.511  1.00  0.00     0.167 HD
HETATM    7  C   UNL     1       2.252   0.166   0.398  1.00  0.00     0.185 A 
HETATM    8  N   UNL     1      -2.031  -0.958   0.003  1.00  0.00    -0.337 N 
ATOM      9  HN  UNL     1      -2.897  -1.496  -0.014  1.00  0.00     0.168 HD
HETATM   10  N   UNL     1      -1.046   1.253  -0.094  1.00  0.00    -0.336 N 
ATOM     11  HN  UNL     1      -1.137   2.263  -0.204  1.00  0.00     0.168 HD
HETATM   12  C   UNL     1      -2.073   0.383  -0.105  1.00  0.00     0.183 A 
ENDROOT
BRANCH   4  13
HETATM   13  N   UNL     1      -0.841  -2.998   0.178  1.00  0.00    -0.363 N 
HETATM   14  C   UNL     1       0.393  -3.747   0.035  1.00  0.00     0.152 C 
BRANCH  13  15
HETATM   15  C   UNL     1      -2.060  -3.631   0.711  1.00  0.00     0.115 C 
HETATM   16  C   UNL     1      -2.356  -3.278   2.186  1.00  0.00     0.298 C 
HETATM   17  N   UNL     1      -2.712  -4.539   2.879  1.00  0.00     0.094 N 
HETATM   18  C   UNL     1      -3.075  -5.482   1.819  1.00  0.00     0.275 C 
HETATM   19  C   UNL     1      -2.073  -5.158   0.719  1.00  0.00     0.057 C 
BRANCH  17  20
HETATM   20  C   UNL     1      -3.740  -4.362   3.920  1.00  0.00     0.215 C 
HETATM   21  C   UNL     1      -4.076  -5.682   4.631  1.00  0.00     0.042 C 
HETATM   22  C   UNL     1      -3.281  -3.354   4.986  1.00  0.00     0.042 C 
ENDBRANCH  17  20
ENDBRANCH  13  15
ENDBRANCH   4  13
BRANCH   2  23
HETATM   23  C   UNL     1       1.651   2.590   0.133  1.00  0.00     0.169 C 
BRANCH  23  24
HETATM   24  C   UNL     1       2.130   3.126  -1.240  1.00  0.00     0.078 C 
HETATM   25  C   UNL     1       2.505   4.614  -1.102  1.00  0.00     0.066 C 
HETATM   26  C   UNL     1       1.276   5.509  -1.088  1.00  0.00     0.170 C 
HETATM   27  O   UNL     1       0.526   5.315  -2.282  1.00  0.00    -0.391 OA
HETATM   28  C   UNL     1       0.011   3.994  -2.393  1.00  0.00     0.170 C 
HETATM   29  C   UNL     1       1.131   2.956  -2.399  1.00  0.00     0.066 C 
BRANCH  24  30
HETATM   30  O   UNL     1       3.347   2.432  -1.575  1.00  0.00    -0.388 OA
HETATM   31  H   UNL     1       3.115   1.553  -1.927  1.00  0.00     0.210 HD
ENDBRANCH  24  30
ENDBRANCH  23  24
ENDBRANCH   2  23
TORSDOF 6
