REMARK  6 active torsions:
REMARK  status: ('A' for Active; 'I' for Inactive)
REMARK    1  A    between atoms: C_5  and  N_6 
REMARK       I    between atoms: N_6  and  C_7 
REMARK       I    between atoms: C_7  and  N_9 
REMARK    2  A    between atoms: N_9  and  C_10 
REMARK    3  A    between atoms: C_10  and  C_11 
REMARK    4  A    between atoms: C_11  and  C_12 
REMARK    5  A    between atoms: C_12  and  C_13 
REMARK    6  A    between atoms: C_13  and  O_14 
ROOT
HETATM    1  N   UNL     1       5.507  -2.115  -0.205  1.00  0.00    -0.289 N 
HETATM    2  C   UNL     1       5.050  -3.396  -0.106  1.00  0.00     0.322 C 
HETATM    3  O   UNL     1       3.843  -3.630  -0.095  1.00  0.00    -0.247 OA
HETATM    4  N   UNL     1       5.995  -4.380  -0.081  1.00  0.00    -0.342 N 
HETATM    5  H   UNL     1       4.816  -1.390  -0.341  1.00  0.00     0.172 HD
HETATM    6  H   UNL     1       6.958  -4.063   0.015  1.00  0.00     0.164 HD
ENDROOT
BRANCH   1   7
HETATM    7  C   UNL     1       6.829  -1.771  -0.204  1.00  0.00     0.153 A 
HETATM    8  N   UNL     1       7.842  -2.560   0.052  1.00  0.00    -0.339 N 
HETATM    9  C   UNL     1       9.025  -1.866  -0.084  1.00  0.00     0.020 A 
ATOM     10  HN  UNL     1       7.767  -3.543   0.313  1.00  0.00     0.168 HD
HETATM   11  C   UNL     1      10.290  -2.586   0.215  1.00  0.00     0.069 C 
HETATM   12  C   UNL     1       8.877  -0.556  -0.511  1.00  0.00     0.004 A 
HETATM   13  S   UNL     1       7.202  -0.166  -0.616  1.00  0.00    -0.057 SA
HETATM   14  C   UNL     1       9.928   0.440  -0.846  1.00  0.00     0.058 C 
ENDBRANCH   1   7
BRANCH   4  15
HETATM   15  C   UNL     1       5.712  -5.791  -0.070  1.00  0.00     0.134 C 
BRANCH  15  16
HETATM   16  C   UNL     1       6.994  -6.657  -0.106  1.00  0.00    -0.022 C 
HETATM   17  C   UNL     1       7.787  -6.436  -1.418  1.00  0.00     0.011 C 
HETATM   18  C   UNL     1       8.380  -7.790  -1.815  1.00  0.00     0.001 C 
HETATM   19  C   UNL     1       7.788  -8.826  -0.870  1.00  0.00     0.001 C 
HETATM   20  C   UNL     1       6.600  -8.141  -0.214  1.00  0.00     0.011 C 
BRANCH  16  21
HETATM   21  C   UNL     1       7.931  -6.378   1.106  1.00  0.00     0.037 C 
BRANCH  21  22
HETATM   22  C   UNL     1       7.290  -6.516   2.485  1.00  0.00     0.165 C 
BRANCH  22  23
HETATM   23  O   UNL     1       8.244  -6.178   3.488  1.00  0.00    -0.401 OA
HETATM   24  H   UNL     1       8.983  -6.802   3.415  1.00  0.00     0.209 HD
ENDBRANCH  22  23
ENDBRANCH  21  22
ENDBRANCH  16  21
ENDBRANCH  15  16
ENDBRANCH   4  15
TORSDOF 6
