REMARK  5 active torsions:
REMARK  status: ('A' for Active; 'I' for Inactive)
REMARK    1  A    between atoms: C_7  and  C_8 
REMARK    2  A    between atoms: C_8  and  C_9 
REMARK    3  A    between atoms: C_9  and  N_10 
REMARK       I    between atoms: N_10  and  C_11 
REMARK    4  A    between atoms: C_11  and  C_13 
REMARK    5  A    between atoms: C_13  and  C_14 
ROOT
HETATM    1  C   UNL     1       1.224  -2.664   0.032  1.00  0.00     0.128 C 
ENDROOT
BRANCH   1   2
HETATM    2  C   UNL     1       2.750  -2.483   0.026  1.00  0.00     0.078 C 
BRANCH   2   3
HETATM    3  C   UNL     1       3.392  -3.040  -1.203  1.00  0.00     0.029 A 
HETATM    4  N   UNL     1       4.348  -4.028  -1.225  1.00  0.00    -0.350 N 
HETATM    5  C   UNL     1       4.921  -4.728  -0.102  1.00  0.00     0.156 C 
HETATM    6  C   UNL     1       4.692  -4.241  -2.531  1.00  0.00     0.182 A 
HETATM    7  N   UNL     1       4.014  -3.465  -3.343  1.00  0.00    -0.360 N 
HETATM    8  C   UNL     1       3.212  -2.710  -2.532  1.00  0.00     0.114 A 
ATOM      9  HN  UNL     1       4.072  -3.432  -4.361  1.00  0.00     0.166 HD
ENDBRANCH   2   3
ENDBRANCH   1   2
BRANCH   1  10
HETATM   10  N   UNL     1       0.794  -4.051   0.055  1.00  0.00    -0.361 N 
HETATM   11  C   UNL     1       1.037  -4.863   1.137  1.00  0.00     0.217 C 
HETATM   12  O   UNL     1       1.663  -4.502   2.130  1.00  0.00    -0.274 OA
HETATM   13  H   UNL     1       0.190  -4.379  -0.686  1.00  0.00     0.162 HD
BRANCH  11  14
HETATM   14  C   UNL     1       0.428  -6.248   1.035  1.00  0.00     0.107 C 
BRANCH  14  15
HETATM   15  C   UNL     1      -0.914  -6.310   1.704  1.00  0.00    -0.006 A 
HETATM   16  C   UNL     1      -1.661  -7.616   1.769  1.00  0.00     0.005 A 
HETATM   17  C   UNL     1      -2.167  -6.507   0.890  1.00  0.00     0.005 A 
ENDBRANCH  14  15
ENDBRANCH  11  14
ENDBRANCH   1  10
TORSDOF 5
