REMARK  6 active torsions:
REMARK  status: ('A' for Active; 'I' for Inactive)
REMARK       I    between atoms: C_2  and  N_4 
REMARK    1  A    between atoms: N_4  and  C_5 
REMARK    2  A    between atoms: C_5  and  C_6 
REMARK    3  A    between atoms: C_6  and  C_7 
REMARK    4  A    between atoms: C_10  and  C_11 
REMARK    5  A    between atoms: C_11  and  C_12 
REMARK    6  A    between atoms: C_12  and  C_13 
ROOT
HETATM    1  C   UNL     1       6.686  -2.779  -0.211  1.00  0.00     0.052 A 
HETATM    2  N   UNL     1       7.520  -2.864   0.804  1.00  0.00    -0.357 N 
ATOM      3  HN  UNL     1       7.240  -2.932   1.782  1.00  0.00     0.166 HD
HETATM    4  C   UNL     1       8.831  -2.848   0.357  1.00  0.00     0.016 A 
HETATM    5  C   UNL     1       8.968  -2.771  -1.016  1.00  0.00     0.076 A 
HETATM    6  S   UNL     1       7.426  -2.721  -1.762  1.00  0.00    -0.087 SA
ENDROOT
BRANCH   1   7
HETATM    7  C   UNL     1       5.194  -2.749  -0.081  1.00  0.00     0.084 C 
BRANCH   7   8
HETATM    8  C   UNL     1       4.770  -2.100   1.237  1.00  0.00     0.129 C 
BRANCH   8   9
HETATM    9  N   UNL     1       3.327  -2.029   1.385  1.00  0.00    -0.361 N 
HETATM   10  C   UNL     1       2.596  -0.985   0.866  1.00  0.00     0.213 C 
HETATM   11  C   UNL     1       1.123  -1.091   1.144  1.00  0.00     0.117 C 
HETATM   12  O   UNL     1       3.086  -0.061   0.227  1.00  0.00    -0.274 OA
HETATM   13  H   UNL     1       2.849  -2.786   1.860  1.00  0.00     0.162 HD
ENDBRANCH   8   9
ENDBRANCH   7   8
ENDBRANCH   1   7
BRANCH   4  14
HETATM   14  C   UNL     1       9.932  -2.887   1.369  1.00  0.00     0.058 C 
BRANCH  14  15
HETATM   15  C   UNL     1       9.890  -4.158   2.223  1.00  0.00     0.010 C 
BRANCH  15  16
HETATM   16  C   UNL     1      11.022  -4.227   3.253  1.00  0.00    -0.014 C 
HETATM   17  C   UNL     1      10.960  -5.509   4.099  1.00  0.00     0.004 C 
HETATM   18  C   UNL     1      11.378  -5.115   5.516  1.00  0.00     0.000 C 
HETATM   19  C   UNL     1      11.822  -3.663   5.433  1.00  0.00     0.000 C 
HETATM   20  C   UNL     1      11.006  -3.097   4.283  1.00  0.00     0.004 C 
ENDBRANCH  15  16
ENDBRANCH  14  15
ENDBRANCH   4  14
TORSDOF 6
