REMARK  7 active torsions:
REMARK  status: ('A' for Active; 'I' for Inactive)
REMARK    1  A    between atoms: C_2  and  C_3 
REMARK    2  A    between atoms: C_2  and  N_10 
REMARK    3  A    between atoms: C_3  and  N_4 
REMARK    4  A    between atoms: N_10  and  C_11 
REMARK    5  A    between atoms: C_11  and  C_12 
REMARK    6  A    between atoms: C_12  and  C_13 
REMARK       I    between atoms: C_13  and  N_15 
REMARK    7  A    between atoms: N_15  and  C_16 
ROOT
HETATM    1  N   UNL     1       3.064   0.974  -0.916  1.00  0.00     0.089 N 
HETATM    2  H   UNL     1       2.692   1.876  -0.614  1.00  0.00     0.316 HD
ENDROOT
BRANCH   1   3
HETATM    3  C   UNL     1       2.540  -0.079  -0.001  1.00  0.00     0.236 C 
HETATM    4  C   UNL     1       1.009   0.003  -0.048  1.00  0.00     0.044 C 
BRANCH   3   5
HETATM    5  C   UNL     1       3.037  -1.494  -0.376  1.00  0.00     0.183 C 
BRANCH   5   6
HETATM    6  N   UNL     1       2.532  -2.565   0.462  1.00  0.00    -0.302 N 
HETATM    7  C   UNL     1       1.830  -3.660   0.042  1.00  0.00     0.111 A 
HETATM    8  C   UNL     1       1.698  -4.470   1.144  1.00  0.00     0.037 A 
HETATM    9  C   UNL     1       2.352  -3.777   2.178  1.00  0.00     0.108 A 
HETATM   10  N   UNL     1       2.855  -2.609   1.769  1.00  0.00    -0.310 N 
ATOM     11  HN  UNL     1       3.363  -1.915   2.317  1.00  0.00     0.186 HD
ENDBRANCH   5   6
ENDBRANCH   3   5
ENDBRANCH   1   3
BRANCH   1  12
HETATM   12  C   UNL     1       4.534   1.030  -0.889  1.00  0.00     0.279 C 
BRANCH  12  13
HETATM   13  C   UNL     1       5.096   2.124  -1.792  1.00  0.00     0.132 C 
BRANCH  13  14
HETATM   14  C   UNL     1       6.615   2.080  -1.734  1.00  0.00     0.219 C 
HETATM   15  O   UNL     1       7.238   1.272  -1.052  1.00  0.00    -0.274 OA
HETATM   16  N   UNL     1       7.232   3.047  -2.500  1.00  0.00    -0.356 N 
HETATM   17  H   UNL     1       6.687   3.481  -3.234  1.00  0.00     0.162 HD
BRANCH  16  18
HETATM   18  C   UNL     1       8.679   3.111  -2.587  1.00  0.00     0.084 C 
HETATM   19  C   UNL     1       9.363   3.366  -1.235  1.00  0.00     0.025 C 
HETATM   20  C   UNL     1      10.546   4.292  -1.512  1.00  0.00     0.002 C 
HETATM   21  C   UNL     1      10.582   4.494  -3.019  1.00  0.00     0.002 C 
HETATM   22  C   UNL     1       9.148   4.267  -3.465  1.00  0.00     0.025 C 
ENDBRANCH  16  18
ENDBRANCH  13  14
ENDBRANCH  12  13
ENDBRANCH   1  12
TORSDOF 7
