REMARK  3 active torsions:
REMARK  status: ('A' for Active; 'I' for Inactive)
REMARK    1  A    between atoms: C_2  and  N_3 
REMARK    2  A    between atoms: C_2  and  C_14 
REMARK       I    between atoms: N_3  and  C_4 
REMARK       I    between atoms: C_4  and  N_6 
REMARK    3  A    between atoms: N_6  and  C_7 
ROOT
HETATM    1  N   UNL     1       2.895  -1.496  -0.243  1.00  0.00    -0.336 N 
HETATM    2  C   UNL     1       4.125  -1.839   0.273  1.00  0.00     0.321 C 
HETATM    3  O   UNL     1       4.792  -1.029   0.907  1.00  0.00    -0.247 OA
HETATM    4  N   UNL     1       4.454  -3.153   0.038  1.00  0.00    -0.308 N 
HETATM    5  H   UNL     1       2.551  -2.011  -1.039  1.00  0.00     0.164 HD
HETATM    6  H   UNL     1       3.929  -3.635  -0.676  1.00  0.00     0.170 HD
ENDROOT
BRANCH   1   7
HETATM    7  C   UNL     1       2.402  -0.118  -0.099  1.00  0.00     0.111 C 
HETATM    8  C   UNL     1       0.875  -0.132  -0.128  1.00  0.00     0.035 C 
BRANCH   7   9
HETATM    9  C   UNL     1       3.028   0.817  -1.161  1.00  0.00     0.143 C 
HETATM   10  C   UNL     1       2.749   2.302  -0.945  1.00  0.00     0.036 C 
HETATM   11  C   UNL     1       2.544   2.866  -2.335  1.00  0.00     0.029 C 
HETATM   12  C   UNL     1       2.735   1.690  -3.267  1.00  0.00     0.168 C 
HETATM   13  O   UNL     1       2.521   0.516  -2.476  1.00  0.00    -0.384 OA
ENDBRANCH   7   9
ENDBRANCH   1   7
BRANCH   4  14
HETATM   14  C   UNL     1       5.572  -3.828   0.588  1.00  0.00     0.051 A 
HETATM   15  C   UNL     1       6.295  -3.354   1.682  1.00  0.00     0.032 A 
HETATM   16  C   UNL     1       7.397  -4.063   2.158  1.00  0.00     0.019 A 
HETATM   17  C   UNL     1       7.741  -5.244   1.528  1.00  0.00     0.088 A 
HETATM   18  N   UNL     1       7.054  -5.760   0.486  1.00  0.00    -0.373 N 
HETATM   19  C   UNL     1       5.986  -5.043   0.047  1.00  0.00     0.117 A 
ATOM     20  HN  UNL     1       7.323  -6.642   0.051  1.00  0.00     0.164 HD
ENDBRANCH   4  14
TORSDOF 3
