REMARK  6 active torsions:
REMARK  status: ('A' for Active; 'I' for Inactive)
REMARK    1  A    between atoms: C_2  and  O_3 
REMARK    2  A    between atoms: C_2  and  C_8 
REMARK    3  A    between atoms: O_3  and  C_4 
REMARK    4  A    between atoms: C_4  and  C_5 
REMARK       I    between atoms: C_8  and  N_10 
REMARK    5  A    between atoms: N_10  and  C_11 
REMARK    6  A    between atoms: C_17  and  O_18 
ROOT
HETATM    1  C   UNL     1       3.034   0.746   1.472  1.00  0.00     0.252 C 
HETATM    2  O   UNL     1       2.419   1.702   1.935  1.00  0.00    -0.270 OA
HETATM    3  N   UNL     1       4.154   0.162   2.050  1.00  0.00    -0.309 N 
HETATM    4  H   UNL     1       4.219  -0.844   2.016  1.00  0.00     0.170 HD
ENDROOT
BRANCH   3   5
HETATM    5  C   UNL     1       4.787   0.712   3.168  1.00  0.00     0.141 A 
HETATM    6  N   UNL     1       5.099  -0.188   4.126  1.00  0.00    -0.350 N 
HETATM    7  C   UNL     1       5.639   0.303   5.262  1.00  0.00     0.090 A 
ATOM      8  HN  UNL     1       4.935  -1.187   3.998  1.00  0.00     0.166 HD
HETATM    9  C   UNL     1       5.934   1.643   5.468  1.00  0.00     0.020 A 
HETATM   10  C   UNL     1       5.678   2.542   4.439  1.00  0.00     0.041 A 
HETATM   11  C   UNL     1       5.101   2.071   3.264  1.00  0.00     0.110 A 
BRANCH  11  12
HETATM   12  O   UNL     1       4.955   2.914   2.198  1.00  0.00    -0.357 OA
HETATM   13  H   UNL     1       4.913   3.827   2.524  1.00  0.00     0.218 HD
ENDBRANCH  11  12
ENDBRANCH   3   5
BRANCH   1  14
HETATM   14  C   UNL     1       2.627   0.058   0.152  1.00  0.00     0.209 C 
HETATM   15  C   UNL     1       1.108  -0.066   0.104  1.00  0.00     0.050 C 
BRANCH  14  16
HETATM   16  O   UNL     1       3.043   0.786  -1.004  1.00  0.00    -0.376 OA
BRANCH  16  17
HETATM   17  C   UNL     1       4.461   0.881  -1.117  1.00  0.00     0.173 C 
BRANCH  17  18
HETATM   18  C   UNL     1       4.798   1.700  -2.320  1.00  0.00     0.009 A 
HETATM   19  C   UNL     1       4.430   1.247  -3.708  1.00  0.00     0.007 A 
HETATM   20  C   UNL     1       5.869   1.232  -3.274  1.00  0.00     0.007 A 
ENDBRANCH  17  18
ENDBRANCH  16  17
ENDBRANCH  14  16
ENDBRANCH   1  14
TORSDOF 6
