REMARK  3 active torsions:
REMARK  status: ('A' for Active; 'I' for Inactive)
REMARK       I    between atoms: C_2  and  N_3 
REMARK       I    between atoms: C_2  and  N_12 
REMARK    1  A    between atoms: N_3  and  C_4 
REMARK    2  A    between atoms: C_4  and  C_5 
REMARK    3  A    between atoms: C_5  and  N_6 
ROOT
HETATM    1  O   UNL     1       1.038   0.055   0.283  1.00  0.00    -0.247 OA
HETATM    2  C   UNL     1       2.238  -0.010   0.028  1.00  0.00     0.318 C 
HETATM    3  N   UNL     1       2.856  -1.216  -0.187  1.00  0.00    -0.341 N 
HETATM    4  N   UNL     1       3.062   1.095  -0.054  1.00  0.00    -0.334 N 
HETATM    5  C   UNL     1       4.407   1.128  -0.629  1.00  0.00     0.128 C 
HETATM    6  C   UNL     1       5.370   1.857   0.309  1.00  0.00     0.029 C 
HETATM    7  C   UNL     1       4.882   3.284   0.677  1.00  0.00    -0.037 C 
HETATM    8  C   UNL     1       5.805   3.864   1.779  1.00  0.00     0.010 C 
HETATM    9  C   UNL     1       5.510   5.328   2.107  1.00  0.00     0.001 C 
HETATM   10  C   UNL     1       5.540   6.211   0.863  1.00  0.00     0.000 C 
HETATM   11  C   UNL     1       4.655   5.669  -0.252  1.00  0.00     0.001 C 
HETATM   12  C   UNL     1       4.973   4.208  -0.565  1.00  0.00     0.010 C 
HETATM   13  C   UNL     1       3.428   3.165   1.213  1.00  0.00     0.029 C 
HETATM   14  C   UNL     1       2.502   2.405   0.263  1.00  0.00     0.128 C 
HETATM   15  H   UNL     1       3.809  -1.253   0.137  1.00  0.00     0.164 HD
ENDROOT
BRANCH   3  16
HETATM   16  C   UNL     1       2.100  -2.451  -0.054  1.00  0.00     0.144 C 
BRANCH  16  17
HETATM   17  C   UNL     1       1.249  -2.752  -1.285  1.00  0.00     0.149 C 
BRANCH  17  18
HETATM   18  N   UNL     1       0.528  -4.000  -1.145  1.00  0.00    -0.350 N 
HETATM   19  C   UNL     1       0.977  -5.241  -1.495  1.00  0.00     0.108 A 
HETATM   20  C   UNL     1      -0.050  -6.094  -1.167  1.00  0.00     0.106 A 
HETATM   21  N   UNL     1      -1.107  -5.402  -0.631  1.00  0.00    -0.361 N 
HETATM   22  C   UNL     1      -0.732  -4.139  -0.638  1.00  0.00     0.182 A 
ATOM     23  HN  UNL     1      -1.993  -5.784  -0.299  1.00  0.00     0.166 HD
ENDBRANCH  17  18
ENDBRANCH  16  17
ENDBRANCH   3  16
TORSDOF 3
