REMARK  4 active torsions:
REMARK  status: ('A' for Active; 'I' for Inactive)
REMARK    1  A    between atoms: C_2  and  N_3 
REMARK    2  A    between atoms: C_5  and  N_6 
REMARK       I    between atoms: N_6  and  C_7 
REMARK       I    between atoms: C_7  and  N_9 
REMARK    3  A    between atoms: N_9  and  C_10 
REMARK    4  A    between atoms: C_10  and  C_12 
ROOT
HETATM    1  N   UNL     1       4.520  -2.813   3.615  1.00  0.00    -0.306 N 
HETATM    2  C   UNL     1       5.197  -1.950   4.449  1.00  0.00     0.321 C 
HETATM    3  O   UNL     1       5.499  -0.790   4.191  1.00  0.00    -0.247 OA
HETATM    4  N   UNL     1       5.559  -2.544   5.640  1.00  0.00    -0.336 N 
HETATM    5  H   UNL     1       4.381  -3.763   3.922  1.00  0.00     0.171 HD
HETATM    6  H   UNL     1       5.014  -3.327   5.972  1.00  0.00     0.164 HD
ENDROOT
BRANCH   1   7
HETATM    7  C   UNL     1       4.062  -2.481   2.351  1.00  0.00     0.070 A 
HETATM    8  C   UNL     1       4.174  -1.278   1.694  1.00  0.00     0.141 A 
HETATM    9  N   UNL     1       3.558  -1.431   0.487  1.00  0.00    -0.302 N 
HETATM   10  N   UNL     1       3.057  -2.666   0.297  1.00  0.00    -0.308 N 
HETATM   11  C   UNL     1       3.367  -3.302   1.432  1.00  0.00     0.138 A 
ATOM     12  HN  UNL     1       2.561  -3.029  -0.517  1.00  0.00     0.186 HD
BRANCH   9  13
HETATM   13  C   UNL     1       3.406  -0.407  -0.528  1.00  0.00     0.143 C 
HETATM   14  C   UNL     1       2.126   0.387  -0.343  1.00  0.00     0.028 C 
ENDBRANCH   9  13
ENDBRANCH   1   7
BRANCH   4  15
HETATM   15  C   UNL     1       6.228  -1.750   6.674  1.00  0.00     0.111 C 
HETATM   16  C   UNL     1       5.183  -1.056   7.551  1.00  0.00     0.035 C 
BRANCH  15  17
HETATM   17  C   UNL     1       7.191  -2.590   7.529  1.00  0.00     0.143 C 
HETATM   18  C   UNL     1       8.326  -3.262   6.761  1.00  0.00     0.036 C 
HETATM   19  C   UNL     1       8.465  -4.628   7.407  1.00  0.00     0.029 C 
HETATM   20  C   UNL     1       7.545  -4.570   8.606  1.00  0.00     0.168 C 
HETATM   21  O   UNL     1       6.513  -3.651   8.229  1.00  0.00    -0.384 OA
ENDBRANCH  15  17
ENDBRANCH   4  15
TORSDOF 4
