REMARK  7 active torsions:
REMARK  status: ('A' for Active; 'I' for Inactive)
REMARK    1  A    between atoms: C_2  and  C_3 
REMARK    2  A    between atoms: C_3  and  C_4 
REMARK    3  A    between atoms: C_4  and  S_5 
REMARK    4  A    between atoms: S_5  and  N_8 
REMARK    5  A    between atoms: N_8  and  C_9 
REMARK    6  A    between atoms: C_9  and  C_10 
REMARK    7  A    between atoms: C_10  and  C_13 
ROOT
HETATM    1  C   UNL     1       9.247  -1.348   2.995  1.00  0.00    -0.001 A 
HETATM    2  C   UNL     1       9.974  -1.946   1.797  1.00  0.00     0.017 A 
HETATM    3  C   UNL     1      10.105  -2.604   3.134  1.00  0.00     0.017 A 
ENDROOT
BRANCH   1   4
HETATM    4  C   UNL     1       7.744  -1.558   3.143  1.00  0.00     0.118 C 
BRANCH   4   5
HETATM    5  N   UNL     1       6.971  -0.838   2.093  1.00  0.00    -0.219 NA
HETATM    6  H   UNL     1       7.187   0.159   2.136  1.00  0.00     0.139 HD
BRANCH   5   7
HETATM    7  S   UNL     1       5.301  -1.074   2.308  1.00  0.00     0.209 S 
HETATM    8  O   UNL     1       4.958  -0.349   3.510  1.00  0.00    -0.211 OA
HETATM    9  O   UNL     1       5.028  -2.489   2.185  1.00  0.00    -0.211 OA
BRANCH   7  10
HETATM   10  C   UNL     1       4.572  -0.210   0.927  1.00  0.00     0.161 C 
BRANCH  10  11
HETATM   11  C   UNL     1       4.832  -0.903  -0.398  1.00  0.00     0.042 C 
BRANCH  11  12
HETATM   12  C   UNL     1       4.201  -0.146  -1.535  1.00  0.00    -0.036 C 
HETATM   13  C   UNL     1       4.892   0.376  -2.554  1.00  0.00     0.007 C 
ENDBRANCH  11  12
ENDBRANCH  10  11
ENDBRANCH   7  10
ENDBRANCH   5   7
ENDBRANCH   4   5
ENDBRANCH   1   4
BRANCH   1  14
HETATM   14  C   UNL     1       9.813  -0.074   3.619  1.00  0.00    -0.046 A 
HETATM   15  C   UNL     1      10.064   0.006   4.997  1.00  0.00     0.025 A 
HETATM   16  C   UNL     1      10.645   1.149   5.525  1.00  0.00     0.088 A 
HETATM   17  N   UNL     1      10.987   2.222   4.786  1.00  0.00    -0.375 N 
HETATM   18  C   UNL     1      10.733   2.148   3.464  1.00  0.00     0.088 A 
ATOM     19  HN  UNL     1      11.416   3.047   5.205  1.00  0.00     0.164 HD
HETATM   20  C   UNL     1      10.151   1.047   2.850  1.00  0.00     0.025 A 
ENDBRANCH   1  14
TORSDOF 7
