REMARK  4 active torsions:
REMARK  status: ('A' for Active; 'I' for Inactive)
REMARK       I    between atoms: C_2  and  N_3 
REMARK       I    between atoms: C_2  and  N_12 
REMARK    1  A    between atoms: N_3  and  C_4 
REMARK    2  A    between atoms: C_4  and  C_5 
REMARK    3  A    between atoms: C_5  and  N_6 
REMARK    4  A    between atoms: N_12  and  C_13 
ROOT
HETATM    1  O   UNL     1       1.111   0.078  -0.076  1.00  0.00    -0.247 OA
HETATM    2  C   UNL     1       2.322   0.253  -0.028  1.00  0.00     0.321 C 
HETATM    3  N   UNL     1       3.109  -0.259   0.991  1.00  0.00    -0.341 N 
HETATM    4  N   UNL     1       3.037   1.031  -0.909  1.00  0.00    -0.301 N 
HETATM    5  H   UNL     1       3.981  -0.662   0.679  1.00  0.00     0.164 HD
HETATM    6  H   UNL     1       3.802   1.560  -0.517  1.00  0.00     0.171 HD
ENDROOT
BRANCH   3   7
HETATM    7  C   UNL     1       2.380  -0.955   2.040  1.00  0.00     0.154 C 
BRANCH   7   8
HETATM    8  C   UNL     1       3.222  -1.594   3.161  1.00  0.00     0.292 C 
BRANCH   8   9
HETATM    9  N   UNL     1       2.362  -2.290   4.141  1.00  0.00     0.090 N 
HETATM   10  C   UNL     1       1.475  -1.400   4.908  1.00  0.00     0.272 C 
HETATM   11  C   UNL     1       2.221  -0.532   5.919  1.00  0.00     0.030 C 
HETATM   12  C   UNL     1       3.024  -1.395   6.886  1.00  0.00     0.003 C 
HETATM   13  C   UNL     1       3.878  -2.428   6.154  1.00  0.00     0.030 C 
HETATM   14  C   UNL     1       3.105  -3.165   5.057  1.00  0.00     0.272 C 
ENDBRANCH   8   9
ENDBRANCH   7   8
ENDBRANCH   3   7
BRANCH   4  15
HETATM   15  C   UNL     1       2.344   1.604  -1.959  1.00  0.00     0.108 A 
HETATM   16  C   UNL     1       1.295   1.181  -2.749  1.00  0.00     0.142 A 
HETATM   17  N   UNL     1       0.831   2.121  -3.656  1.00  0.00    -0.301 N 
HETATM   18  N   UNL     1       1.508   3.257  -3.566  1.00  0.00    -0.060 NA
ATOM     19  HN  UNL     1       0.065   1.959  -4.310  1.00  0.00     0.182 HD
HETATM   20  S   UNL     1       2.744   3.189  -2.430  1.00  0.00     0.019 SA
ENDBRANCH   4  15
TORSDOF 4
