REMARK  3 active torsions:
REMARK  status: ('A' for Active; 'I' for Inactive)
REMARK    1  A    between atoms: C_2  and  N_3 
REMARK    2  A    between atoms: C_2  and  C_13 
REMARK       I    between atoms: N_3  and  C_4 
REMARK       I    between atoms: C_4  and  N_6 
REMARK    3  A    between atoms: N_6  and  C_7 
ROOT
HETATM    1  N   UNL     1       2.783  -1.349   0.199  1.00  0.00    -0.338 N 
HETATM    2  C   UNL     1       3.962  -1.754   0.754  1.00  0.00     0.323 C 
HETATM    3  O   UNL     1       4.796  -0.978   1.213  1.00  0.00    -0.247 OA
HETATM    4  N   UNL     1       4.207  -3.095   0.750  1.00  0.00    -0.274 N 
HETATM    5  H   UNL     1       2.233  -2.066  -0.262  1.00  0.00     0.164 HD
HETATM    6  H   UNL     1       5.112  -3.400   1.077  1.00  0.00     0.174 HD
ENDROOT
BRANCH   1   7
HETATM    7  C   UNL     1       2.395   0.022  -0.019  1.00  0.00     0.086 C 
HETATM    8  C   UNL     1       0.869   0.119   0.033  1.00  0.00     0.032 C 
BRANCH   7   9
HETATM    9  C   UNL     1       2.918   0.561  -1.331  1.00  0.00     0.008 A 
HETATM   10  C   UNL     1       2.543  -0.055  -2.662  1.00  0.00     0.007 A 
HETATM   11  C   UNL     1       3.963  -0.135  -2.181  1.00  0.00     0.007 A 
ENDBRANCH   7   9
ENDBRANCH   1   7
BRANCH   4  12
HETATM   12  C   UNL     1       3.325  -4.040   0.324  1.00  0.00     0.231 A 
HETATM   13  N   UNL     1       2.075  -3.883  -0.066  1.00  0.00    -0.330 N 
HETATM   14  C   UNL     1       1.663  -5.150  -0.371  1.00  0.00     0.116 A 
ATOM     15  HN  UNL     1       1.540  -3.017  -0.126  1.00  0.00     0.168 HD
HETATM   16  C   UNL     1       2.704  -6.026  -0.199  1.00  0.00     0.162 A 
HETATM   17  O   UNL     1       3.775  -5.326   0.271  1.00  0.00    -0.290 OA
ENDBRANCH   4  12
TORSDOF 3
