REMARK  4 active torsions:
REMARK  status: ('A' for Active; 'I' for Inactive)
REMARK    1  A    between atoms: O_2  and  C_3 
REMARK    2  A    between atoms: C_3  and  C_4 
REMARK    3  A    between atoms: C_4  and  N_5 
REMARK    4  A    between atoms: C_6  and  N_18 
ROOT
HETATM    1  N   UNL     1       4.898  -1.328  -2.332  1.00  0.00    -0.170 N 
HETATM    2  C   UNL     1       5.371  -0.736  -3.500  1.00  0.00     0.708 A 
HETATM    3  N   UNL     1       5.481  -1.635  -4.472  1.00  0.00    -0.172 N 
ATOM      4  HN  UNL     1       5.736  -1.468  -5.445  1.00  0.00     0.186 HD
HETATM    5  C   UNL     1       5.178  -2.833  -3.884  1.00  0.00     0.160 A 
HETATM    6  N   UNL     1       5.216  -4.086  -4.475  1.00  0.00    -0.287 N 
HETATM    7  C   UNL     1       5.667  -4.305  -5.829  1.00  0.00     0.163 C 
HETATM    8  C   UNL     1       4.824  -5.196  -3.732  1.00  0.00     0.330 A 
HETATM    9  O   UNL     1       4.819  -6.345  -4.174  1.00  0.00    -0.246 OA
HETATM   10  N   UNL     1       4.422  -4.977  -2.429  1.00  0.00    -0.273 N 
HETATM   11  C   UNL     1       4.386  -3.775  -1.767  1.00  0.00     0.280 A 
HETATM   12  O   UNL     1       4.025  -3.714  -0.595  1.00  0.00    -0.265 OA
HETATM   13  C   UNL     1       4.796  -2.677  -2.581  1.00  0.00     0.164 A 
HETATM   14  H   UNL     1       4.147  -5.792  -1.908  1.00  0.00     0.173 HD
ENDROOT
BRANCH   2  15
HETATM   15  N   UNL     1       5.655   0.639  -3.644  1.00  0.00    -0.090 N 
HETATM   16  N   UNL     1       5.874   1.347  -2.510  1.00  0.00    -0.284 N 
HETATM   17  C   UNL     1       6.031   2.612  -2.893  1.00  0.00     0.031 A 
ATOM     18  HN  UNL     1       5.911   0.985  -1.557  1.00  0.00     0.188 HD
HETATM   19  C   UNL     1       6.257   3.674  -1.878  1.00  0.00     0.070 C 
HETATM   20  C   UNL     1       5.932   2.751  -4.296  1.00  0.00    -0.013 A 
HETATM   21  C   UNL     1       6.003   4.011  -5.079  1.00  0.00     0.052 C 
HETATM   22  C   UNL     1       5.734   1.457  -4.762  1.00  0.00     0.056 A 
HETATM   23  C   UNL     1       5.525   0.980  -6.152  1.00  0.00     0.072 C 
ENDBRANCH   2  15
BRANCH   1  24
HETATM   24  C   UNL     1       4.416  -0.663  -1.131  1.00  0.00     0.174 C 
BRANCH  24  25
HETATM   25  C   UNL     1       3.186   0.204  -1.393  1.00  0.00     0.187 C 
BRANCH  25  26
HETATM   26  O   UNL     1       2.719   0.767  -0.167  1.00  0.00    -0.394 OA
HETATM   27  C   UNL     1       1.674   1.702  -0.402  1.00  0.00     0.201 C 
ENDBRANCH  25  26
ENDBRANCH  24  25
ENDBRANCH   1  24
TORSDOF 4
