REMARK  2 active torsions:
REMARK  status: ('A' for Active; 'I' for Inactive)
REMARK    1  A    between atoms: C_6  and  N_7 
REMARK       I    between atoms: N_7  and  C_8 
REMARK       I    between atoms: C_8  and  N_10 
REMARK    2  A    between atoms: N_10  and  C_11 
ROOT
HETATM    1  N   UNL     1       5.909  -2.649   0.156  1.00  0.00    -0.295 N 
HETATM    2  C   UNL     1       5.490  -3.878   0.599  1.00  0.00     0.322 C 
HETATM    3  O   UNL     1       5.422  -4.111   1.806  1.00  0.00    -0.247 OA
HETATM    4  N   UNL     1       5.142  -4.768  -0.376  1.00  0.00    -0.337 N 
HETATM    5  H   UNL     1       6.058  -1.971   0.897  1.00  0.00     0.172 HD
HETATM    6  H   UNL     1       5.436  -4.469  -1.307  1.00  0.00     0.164 HD
ENDROOT
BRANCH   4   7
HETATM    7  C   UNL     1       4.793  -6.166  -0.158  1.00  0.00     0.103 C 
HETATM    8  C   UNL     1       3.881  -6.806  -1.251  1.00  0.00     0.041 C 
HETATM    9  C   UNL     1       2.643  -7.603  -1.615  1.00  0.00     0.035 C 
HETATM   10  C   UNL     1       4.686  -8.113  -0.824  1.00  0.00     0.138 C 
HETATM   11  C   UNL     1       3.247  -8.706  -2.521  1.00  0.00     0.168 C 
HETATM   12  O   UNL     1       4.461  -9.094  -1.852  1.00  0.00    -0.385 OA
HETATM   13  C   UNL     1       5.919  -7.187  -0.728  1.00  0.00     0.007 C 
HETATM   14  C   UNL     1       7.051  -7.339   0.293  1.00  0.00     0.014 C 
HETATM   15  C   UNL     1       6.611  -7.099  -2.100  1.00  0.00     0.014 C 
HETATM   16  C   UNL     1       8.349  -7.095  -0.492  1.00  0.00     0.001 C 
HETATM   17  C   UNL     1       7.937  -6.442  -1.799  1.00  0.00     0.001 C 
ENDBRANCH   4   7
BRANCH   1  18
HETATM   18  C   UNL     1       6.134  -2.258  -1.170  1.00  0.00     0.109 A 
HETATM   19  C   UNL     1       6.358  -0.922  -1.461  1.00  0.00     0.049 A 
HETATM   20  C   UNL     1       6.524  -0.559  -2.796  1.00  0.00     0.006 A 
HETATM   21  C   UNL     1       6.496  -1.533  -3.792  1.00  0.00     0.025 A 
HETATM   22  C   UNL     1       6.301  -2.853  -3.421  1.00  0.00     0.007 A 
HETATM   23  C   UNL     1       6.255  -3.970  -4.414  1.00  0.00     0.068 C 
HETATM   24  N   UNL     1       6.107  -3.206  -2.132  1.00  0.00    -0.346 N 
ATOM     25  HN  UNL     1       5.941  -4.182  -1.886  1.00  0.00     0.167 HD
ENDBRANCH   1  18
TORSDOF 2
