REMARK  4 active torsions:
REMARK  status: ('A' for Active; 'I' for Inactive)
REMARK    1  A    between atoms: C_2  and  N_3 
REMARK    2  A    between atoms: C_2  and  C_15 
REMARK       I    between atoms: N_3  and  C_4 
REMARK    3  A    between atoms: C_4  and  C_6 
REMARK    4  A    between atoms: C_6  and  N_7 
ROOT
HETATM    1  N   UNL     1       2.888  -0.084  -1.453  1.00  0.00    -0.353 N 
HETATM    2  C   UNL     1       2.676  -1.201  -2.234  1.00  0.00     0.237 C 
HETATM    3  O   UNL     1       2.028  -2.172  -1.845  1.00  0.00    -0.272 OA
HETATM    4  H   UNL     1       3.439   0.691  -1.814  1.00  0.00     0.163 HD
ENDROOT
BRANCH   2   5
HETATM    5  C   UNL     1       3.284  -1.149  -3.615  1.00  0.00     0.251 C 
BRANCH   5   6
HETATM    6  N   UNL     1       4.625  -1.698  -3.617  1.00  0.00    -0.288 N 
HETATM    7  N   UNL     1       5.655  -0.879  -3.312  1.00  0.00    -0.303 N 
HETATM    8  C   UNL     1       6.734  -1.666  -3.385  1.00  0.00     0.024 A 
ATOM      9  HN  UNL     1       5.618   0.113  -3.079  1.00  0.00     0.186 HD
HETATM   10  C   UNL     1       8.081  -1.137  -3.068  1.00  0.00     0.070 C 
HETATM   11  C   UNL     1       6.395  -2.976  -3.785  1.00  0.00     0.052 A 
HETATM   12  C   UNL     1       5.026  -2.969  -3.946  1.00  0.00     0.027 A 
HETATM   13  C   UNL     1       4.104  -4.056  -4.356  1.00  0.00     0.070 C 
ENDBRANCH   5   6
ENDBRANCH   2   5
BRANCH   1  14
HETATM   14  C   UNL     1       2.328   0.066  -0.107  1.00  0.00     0.109 C 
HETATM   15  C   UNL     1       0.954   0.731  -0.209  1.00  0.00     0.035 C 
BRANCH  14  16
HETATM   16  C   UNL     1       3.319   0.837   0.790  1.00  0.00     0.143 C 
HETATM   17  C   UNL     1       2.929   0.945   2.262  1.00  0.00     0.036 C 
HETATM   18  C   UNL     1       3.281   2.367   2.653  1.00  0.00     0.029 C 
HETATM   19  C   UNL     1       4.008   2.923   1.450  1.00  0.00     0.168 C 
HETATM   20  O   UNL     1       3.500   2.191   0.330  1.00  0.00    -0.384 OA
ENDBRANCH  14  16
ENDBRANCH   1  14
TORSDOF 4
