REMARK  7 active torsions:
REMARK  status: ('A' for Active; 'I' for Inactive)
REMARK    1  A    between atoms: C_2  and  C_4 
REMARK    2  A    between atoms: C_4  and  N_6 
REMARK       I    between atoms: N_6  and  C_7 
REMARK    3  A    between atoms: C_7  and  C_9 
REMARK    4  A    between atoms: C_9  and  N_10 
REMARK    5  A    between atoms: N_10  and  C_11 
REMARK    6  A    between atoms: C_11  and  C_12 
REMARK    7  A    between atoms: C_12  and  N_13 
ROOT
HETATM    1  C   UNL     1       6.706   1.073   2.389  1.00  0.00     0.371 C 
ENDROOT
BRANCH   1   2
HETATM    2  C   UNL     1       5.181   1.192   2.454  1.00  0.00     0.246 C 
HETATM    3  N   UNL     1       4.525   0.589   1.403  1.00  0.00    -0.355 N 
HETATM    4  H   UNL     1       5.110   0.068   0.755  1.00  0.00     0.162 HD
HETATM    5  O   UNL     1       4.610   1.738   3.392  1.00  0.00    -0.272 OA
BRANCH   3   6
HETATM    6  C   UNL     1       3.073   0.499   1.335  1.00  0.00     0.083 C 
HETATM    7  C   UNL     1       2.600  -0.697   2.167  1.00  0.00     0.032 C 
BRANCH   6   8
HETATM    8  C   UNL     1       2.592   0.426  -0.136  1.00  0.00    -0.000 C 
HETATM    9  C   UNL     1       1.063   0.451  -0.233  1.00  0.00     0.011 C 
HETATM   10  C   UNL     1       3.157   1.582  -0.973  1.00  0.00     0.011 C 
ENDBRANCH   6   8
ENDBRANCH   3   6
ENDBRANCH   1   2
BRANCH   1  11
HETATM   11  N   UNL     1       7.166   0.910   0.987  1.00  0.00     0.093 N 
HETATM   12  H   UNL     1       6.869   1.748   0.478  1.00  0.00     0.316 HD
BRANCH  11  13
HETATM   13  C   UNL     1       8.639   0.839   0.918  1.00  0.00     0.291 C 
BRANCH  13  14
HETATM   14  C   UNL     1       9.224  -0.417   1.568  1.00  0.00     0.178 C 
BRANCH  14  15
HETATM   15  N   UNL     1      10.662  -0.488   1.411  1.00  0.00    -0.302 N 
HETATM   16  C   UNL     1      11.348  -1.148   0.433  1.00  0.00     0.111 A 
HETATM   17  C   UNL     1      12.679  -0.989   0.734  1.00  0.00     0.037 A 
HETATM   18  C   UNL     1      12.691  -0.213   1.908  1.00  0.00     0.108 A 
HETATM   19  N   UNL     1      11.461   0.107   2.318  1.00  0.00    -0.310 N 
ATOM     20  HN  UNL     1      11.191   0.668   3.126  1.00  0.00     0.186 HD
ENDBRANCH  14  15
ENDBRANCH  13  14
ENDBRANCH  11  13
ENDBRANCH   1  11
TORSDOF 7
