REMARK  2 active torsions:
REMARK  status: ('A' for Active; 'I' for Inactive)
REMARK    1  A    between atoms: C_6  and  C_7 
REMARK       I    between atoms: C_7  and  N_9 
REMARK    2  A    between atoms: N_9  and  C_10 
ROOT
HETATM    1  C   UNL     1       2.058   1.122   2.200  1.00  0.00     0.252 C 
HETATM    2  O   UNL     1       1.358   0.223   2.665  1.00  0.00    -0.270 OA
HETATM    3  N   UNL     1       2.278   2.333   2.824  1.00  0.00    -0.309 N 
HETATM    4  H   UNL     1       3.241   2.642   2.821  1.00  0.00     0.170 HD
ENDROOT
BRANCH   3   5
HETATM    5  C   UNL     1       1.580   2.688   3.990  1.00  0.00     0.129 A 
HETATM    6  N   UNL     1       2.381   3.157   4.978  1.00  0.00    -0.351 N 
HETATM    7  C   UNL     1       1.792   3.451   6.158  1.00  0.00     0.090 A 
ATOM      8  HN  UNL     1       3.383   3.282   4.837  1.00  0.00     0.166 HD
HETATM    9  C   UNL     1       0.429   3.356   6.389  1.00  0.00     0.019 A 
HETATM   10  C   UNL     1      -0.387   2.941   5.342  1.00  0.00     0.029 A 
HETATM   11  C   UNL     1       0.186   2.604   4.117  1.00  0.00     0.078 A 
HETATM   12 CL   UNL     1      -0.889   2.257   2.807  1.00  0.00    -0.080 Cl
ENDBRANCH   3   5
BRANCH   1  13
HETATM   13  C   UNL     1       2.864   0.968   0.900  1.00  0.00     0.217 C 
HETATM   14  C   UNL     1       2.410  -0.147  -0.032  1.00  0.00     0.022 C 
HETATM   15  C   UNL     1       0.914  -0.240  -0.290  1.00  0.00     0.013 C 
HETATM   16  C   UNL     1       3.029  -1.376   0.602  1.00  0.00     0.033 C 
HETATM   17  C   UNL     1       4.267  -0.832   1.299  1.00  0.00     0.169 C 
HETATM   18  O   UNL     1       4.208   0.608   1.255  1.00  0.00    -0.376 OA
ENDBRANCH   1  13
TORSDOF 2
