REMARK  5 active torsions:
REMARK  status: ('A' for Active; 'I' for Inactive)
REMARK    1  A    between atoms: C_2  and  C_3 
REMARK    2  A    between atoms: C_2  and  N_16 
REMARK       I    between atoms: C_3  and  N_5 
REMARK    3  A    between atoms: N_5  and  C_6 
REMARK    4  A    between atoms: C_6  and  C_7 
REMARK    5  A    between atoms: C_7  and  N_8 
ROOT
HETATM    1  C   UNL     1       2.825   1.137   1.204  1.00  0.00     0.242 C 
HETATM    2  O   UNL     1       3.741   1.009   2.017  1.00  0.00    -0.271 OA
HETATM    3  N   UNL     1       2.343   2.380   0.835  1.00  0.00    -0.358 N 
HETATM    4  H   UNL     1       1.801   2.442  -0.027  1.00  0.00     0.162 HD
ENDROOT
BRANCH   3   5
HETATM    5  C   UNL     1       3.032   3.550   1.347  1.00  0.00     0.152 C 
BRANCH   5   6
HETATM    6  C   UNL     1       2.507   4.901   0.835  1.00  0.00     0.292 C 
BRANCH   6   7
HETATM    7  N   UNL     1       3.246   6.057   1.390  1.00  0.00     0.095 N 
HETATM    8  C   UNL     1       2.751   7.344   0.847  1.00  0.00     0.303 C 
HETATM    9  C   UNL     1       3.167   7.618  -0.623  1.00  0.00     0.146 C 
HETATM   10  C   UNL     1       2.801   9.041  -1.026  1.00  0.00     0.041 C 
HETATM   11  O   UNL     1       4.586   7.463  -0.822  1.00  0.00    -0.378 OA
HETATM   12  C   UNL     1       5.035   6.175  -0.368  1.00  0.00     0.146 C 
HETATM   13  C   UNL     1       6.532   6.058  -0.615  1.00  0.00     0.041 C 
HETATM   14  C   UNL     1       4.705   6.015   1.128  1.00  0.00     0.303 C 
ENDBRANCH   6   7
ENDBRANCH   5   6
ENDBRANCH   3   5
BRANCH   1  15
HETATM   15  C   UNL     1       2.118  -0.072   0.602  1.00  0.00     0.196 C 
HETATM   16  C   UNL     1       2.686  -1.371   1.184  1.00  0.00     0.044 C 
BRANCH  15  17
HETATM   17  N   UNL     1       2.169  -0.029  -0.848  1.00  0.00    -0.273 N 
HETATM   18  C   UNL     1       3.055  -0.615  -1.699  1.00  0.00     0.202 A 
HETATM   19  N   UNL     1       2.690  -0.390  -2.940  1.00  0.00    -0.346 N 
HETATM   20  C   UNL     1       1.563   0.365  -2.799  1.00  0.00     0.198 A 
ATOM     21  HN  UNL     1       3.140  -0.704  -3.800  1.00  0.00     0.167 HD
HETATM   22  N   UNL     1       1.222   0.647  -1.538  1.00  0.00    -0.292 N 
ATOM     23  HN  UNL     1       0.453   1.219  -1.189  1.00  0.00     0.188 HD
ENDBRANCH  15  17
ENDBRANCH   1  15
TORSDOF 5
