REMARK  7 active torsions:
REMARK  status: ('A' for Active; 'I' for Inactive)
REMARK    1  A    between atoms: O_2  and  C_3 
REMARK    2  A    between atoms: C_3  and  C_4 
REMARK    3  A    between atoms: C_4  and  N_5 
REMARK    4  A    between atoms: C_7  and  C_12 
REMARK       I    between atoms: C_12  and  N_14 
REMARK    5  A    between atoms: N_14  and  C_15 
REMARK    6  A    between atoms: C_15  and  C_16 
REMARK    7  A    between atoms: C_16  and  N_23 
ROOT
HETATM    1  C   UNL     1       3.537   3.824  -4.782  1.00  0.00     0.253 C 
HETATM    2  O   UNL     1       2.733   4.239  -5.617  1.00  0.00    -0.268 OA
HETATM    3  N   UNL     1       4.494   4.634  -4.213  1.00  0.00    -0.354 N 
HETATM    4  H   UNL     1       5.052   4.325  -3.429  1.00  0.00     0.162 HD
ENDROOT
BRANCH   1   5
HETATM    5  C   UNL     1       3.443   2.397  -4.299  1.00  0.00     0.047 A 
HETATM    6  C   UNL     1       4.438   1.761  -3.653  1.00  0.00     0.111 A 
HETATM    7  N   UNL     1       4.298   0.448  -3.208  1.00  0.00    -0.322 N 
HETATM    8  C   UNL     1       3.127  -0.285  -3.404  1.00  0.00     0.247 A 
HETATM    9  C   UNL     1       2.057   0.391  -4.170  1.00  0.00     0.075 A 
HETATM   10  O   UNL     1       2.941  -1.430  -3.000  1.00  0.00    -0.268 OA
HETATM   11  C   UNL     1       2.220   1.656  -4.585  1.00  0.00     0.024 A 
BRANCH   7  12
HETATM   12  C   UNL     1       5.371  -0.171  -2.429  1.00  0.00     0.158 C 
BRANCH  12  13
HETATM   13  C   UNL     1       6.044  -1.351  -3.133  1.00  0.00     0.187 C 
BRANCH  13  14
HETATM   14  O   UNL     1       7.115  -1.832  -2.313  1.00  0.00    -0.394 OA
HETATM   15  C   UNL     1       7.722  -2.989  -2.875  1.00  0.00     0.201 C 
ENDBRANCH  13  14
ENDBRANCH  12  13
ENDBRANCH   7  12
ENDBRANCH   1   5
BRANCH   3  16
HETATM   16  C   UNL     1       4.542   6.069  -4.493  1.00  0.00     0.164 C 
BRANCH  16  17
HETATM   17  C   UNL     1       4.341   6.994  -3.194  1.00  0.00     0.174 C 
HETATM   18  C   UNL     1       2.885   6.629  -2.726  1.00  0.00     0.043 C 
HETATM   19  C   UNL     1       2.210   7.210  -1.490  1.00  0.00     0.003 C 
HETATM   20  C   UNL     1       2.146   8.720  -1.289  1.00  0.00     0.000 C 
HETATM   21  C   UNL     1       2.495   9.615  -2.466  1.00  0.00     0.000 C 
HETATM   22  C   UNL     1       3.970   9.604  -2.849  1.00  0.00     0.003 C 
HETATM   23  C   UNL     1       4.370   8.447  -3.756  1.00  0.00     0.043 C 
BRANCH  17  24
HETATM   24  N   UNL     1       5.428   6.657  -2.206  1.00  0.00     0.091 N 
HETATM   25  C   UNL     1       6.798   6.824  -2.731  1.00  0.00     0.310 C 
HETATM   26  C   UNL     1       5.419   7.348  -0.915  1.00  0.00     0.310 C 
ENDBRANCH  17  24
ENDBRANCH  16  17
ENDBRANCH   3  16
TORSDOF 7
