REMARK  2 active torsions:
REMARK  status: ('A' for Active; 'I' for Inactive)
REMARK    1  A    between atoms: C_5  and  N_8 
REMARK       I    between atoms: N_8  and  C_9 
REMARK       I    between atoms: C_9  and  N_11 
REMARK    2  A    between atoms: N_11  and  C_12 
ROOT
HETATM    1  N   UNL     1       4.570  -0.837  -2.938  1.00  0.00    -0.338 N 
HETATM    2  C   UNL     1       5.157  -0.349  -4.083  1.00  0.00     0.322 C 
HETATM    3  O   UNL     1       4.518   0.199  -4.976  1.00  0.00    -0.247 OA
HETATM    4  N   UNL     1       6.504  -0.620  -4.121  1.00  0.00    -0.293 N 
HETATM    5  H   UNL     1       5.136  -0.769  -2.106  1.00  0.00     0.164 HD
HETATM    6  H   UNL     1       6.804  -1.474  -3.677  1.00  0.00     0.172 HD
ENDROOT
BRANCH   1   7
HETATM    7  C   UNL     1       3.118  -0.786  -2.785  1.00  0.00     0.086 C 
HETATM    8  C   UNL     1       2.620   0.616  -2.415  1.00  0.00     0.026 C 
HETATM    9  C   UNL     1       2.918   0.989  -0.964  1.00  0.00     0.006 C 
HETATM   10  C   UNL     1       2.417  -0.056   0.040  1.00  0.00    -0.019 C 
HETATM   11  C   UNL     1       0.891  -0.036   0.166  1.00  0.00     0.010 C 
HETATM   12  C   UNL     1       2.936  -1.454  -0.328  1.00  0.00     0.006 C 
HETATM   13  C   UNL     1       2.646  -1.841  -1.779  1.00  0.00     0.026 C 
ENDBRANCH   1   7
BRANCH   4  14
HETATM   14  C   UNL     1       7.264  -0.264  -5.218  1.00  0.00     0.132 A 
HETATM   15  C   UNL     1       7.126   0.886  -6.025  1.00  0.00     0.084 A 
HETATM   16  C   UNL     1       8.031   0.704  -7.037  1.00  0.00     0.076 A 
HETATM   17  C   UNL     1       8.361   1.460  -8.256  1.00  0.00     0.079 C 
HETATM   18  O   UNL     1       8.719  -0.448  -6.817  1.00  0.00    -0.241 OA
HETATM   19  N   UNL     1       8.272  -1.033  -5.641  1.00  0.00    -0.245 N 
ATOM     20  HN  UNL     1       8.636  -1.874  -5.193  1.00  0.00     0.196 HD
ENDBRANCH   4  14
TORSDOF 2
