REMARK  5 active torsions:
REMARK  status: ('A' for Active; 'I' for Inactive)
REMARK    1  A    between atoms: C_2  and  C_3 
REMARK    2  A    between atoms: C_2  and  N_15 
REMARK       I    between atoms: C_3  and  N_5 
REMARK    3  A    between atoms: N_5  and  C_6 
REMARK    4  A    between atoms: C_6  and  C_7 
REMARK    5  A    between atoms: C_7  and  N_8 
ROOT
HETATM    1  C   UNL     1       2.221  -0.475   1.479  1.00  0.00     0.242 C 
HETATM    2  O   UNL     1       2.458  -1.639   1.812  1.00  0.00    -0.271 OA
HETATM    3  N   UNL     1       2.405   0.586   2.345  1.00  0.00    -0.358 N 
HETATM    4  H   UNL     1       2.372   1.532   1.959  1.00  0.00     0.162 HD
ENDROOT
BRANCH   1   5
HETATM    5  C   UNL     1       1.791  -0.176   0.052  1.00  0.00     0.196 C 
HETATM    6  C   UNL     1       3.004  -0.098  -0.872  1.00  0.00     0.044 C 
BRANCH   5   7
HETATM    7  N   UNL     1       0.941   0.995  -0.047  1.00  0.00    -0.273 N 
HETATM    8  C   UNL     1      -0.379   1.030  -0.382  1.00  0.00     0.202 A 
HETATM    9  N   UNL     1      -0.794   2.275  -0.400  1.00  0.00    -0.346 N 
HETATM   10  C   UNL     1       0.326   2.980  -0.063  1.00  0.00     0.198 A 
ATOM     11  HN  UNL     1      -1.726   2.630  -0.614  1.00  0.00     0.167 HD
HETATM   12  N   UNL     1       1.414   2.242   0.176  1.00  0.00    -0.292 N 
ATOM     13  HN  UNL     1       2.350   2.539   0.452  1.00  0.00     0.188 HD
ENDBRANCH   5   7
ENDBRANCH   1   5
BRANCH   3  14
HETATM   14  C   UNL     1       3.014   0.361   3.645  1.00  0.00     0.152 C 
BRANCH  14  15
HETATM   15  C   UNL     1       2.694   1.429   4.715  1.00  0.00     0.292 C 
BRANCH  15  16
HETATM   16  N   UNL     1       3.284   1.103   6.036  1.00  0.00     0.094 N 
HETATM   17  C   UNL     1       2.743  -0.143   6.618  1.00  0.00     0.273 C 
HETATM   18  C   UNL     1       1.284  -0.021   7.061  1.00  0.00     0.030 C 
HETATM   19  C   UNL     1       1.106   1.122   8.054  1.00  0.00     0.004 C 
HETATM   20  C   UNL     1       1.768   2.412   7.571  1.00  0.00     0.035 C 
HETATM   21  C   UNL     1       3.199   2.174   7.056  1.00  0.00     0.219 C 
HETATM   22  C   UNL     1       3.858   3.490   6.633  1.00  0.00     0.043 C 
ENDBRANCH  15  16
ENDBRANCH  14  15
ENDBRANCH   3  14
TORSDOF 5
