REMARK  5 active torsions:
REMARK  status: ('A' for Active; 'I' for Inactive)
REMARK    1  A    between atoms: C_5  and  C_6 
REMARK    2  A    between atoms: C_6  and  C_7 
REMARK    3  A    between atoms: C_7  and  N_8 
REMARK       I    between atoms: N_8  and  C_9 
REMARK       I    between atoms: C_9  and  N_11 
REMARK    4  A    between atoms: N_11  and  C_12 
REMARK    5  A    between atoms: C_15  and  O_16 
ROOT
HETATM    1  N   UNL     1       8.262   1.646   0.369  1.00  0.00    -0.343 N 
HETATM    2  C   UNL     1       9.505   1.078   0.262  1.00  0.00     0.316 C 
HETATM    3  O   UNL     1       9.723  -0.122   0.349  1.00  0.00    -0.247 OA
HETATM    4  N   UNL     1      10.463   2.037   0.061  1.00  0.00    -0.339 N 
HETATM    5  H   UNL     1       8.138   2.564  -0.046  1.00  0.00     0.164 HD
HETATM    6  H   UNL     1      10.199   2.918   0.482  1.00  0.00     0.164 HD
ENDROOT
BRANCH   1   7
HETATM    7  C   UNL     1       7.067   0.827   0.419  1.00  0.00     0.130 C 
BRANCH   7   8
HETATM    8  C   UNL     1       5.892   1.532   1.095  1.00  0.00     0.077 C 
BRANCH   8   9
HETATM    9  C   UNL     1       5.388   2.726   0.343  1.00  0.00     0.018 A 
HETATM   10  N   UNL     1       6.229   3.818   0.166  1.00  0.00    -0.357 N 
HETATM   11  C   UNL     1       5.591   4.782  -0.464  1.00  0.00     0.046 A 
ATOM     12  HN  UNL     1       7.199   3.866   0.478  1.00  0.00     0.166 HD
HETATM   13  C   UNL     1       6.180   6.108  -0.795  1.00  0.00     0.076 C 
HETATM   14  S   UNL     1       3.970   4.430  -0.909  1.00  0.00    -0.087 SA
HETATM   15  C   UNL     1       4.122   2.884  -0.190  1.00  0.00     0.076 A 
ENDBRANCH   8   9
ENDBRANCH   7   8
ENDBRANCH   1   7
BRANCH   4  16
HETATM   16  C   UNL     1      11.895   1.742   0.046  1.00  0.00     0.086 C 
HETATM   17  C   UNL     1      12.669   3.056  -0.141  1.00  0.00     0.028 C 
HETATM   18  C   UNL     1      12.421   3.658  -1.529  1.00  0.00     0.034 C 
HETATM   19  C   UNL     1      12.756   2.682  -2.656  1.00  0.00     0.118 C 
HETATM   20  C   UNL     1      12.118   1.305  -2.461  1.00  0.00     0.034 C 
HETATM   21  C   UNL     1      12.319   0.748  -1.049  1.00  0.00     0.028 C 
BRANCH  19  22
HETATM   22  O   UNL     1      14.173   2.556  -2.771  1.00  0.00    -0.396 OA
HETATM   23  H   UNL     1      14.516   2.119  -1.975  1.00  0.00     0.210 HD
ENDBRANCH  19  22
ENDBRANCH   4  16
TORSDOF 5
