REMARK  2 active torsions:
REMARK  status: ('A' for Active; 'I' for Inactive)
REMARK    1  A    between atoms: N_7  and  C_8 
REMARK    2  A    between atoms: C_8  and  C_9 
ROOT
HETATM    1  C   UNL     1       3.633   0.111   2.043  1.00  0.00     0.089 C 
HETATM    2  C   UNL     1       3.564   0.166   0.561  1.00  0.00     0.079 A 
HETATM    3  N   UNL     1       4.028   1.166  -0.164  1.00  0.00    -0.355 N 
ATOM      4  HN  UNL     1       4.444   2.031   0.181  1.00  0.00     0.166 HD
HETATM    5  C   UNL     1       3.840   0.810  -1.469  1.00  0.00     0.106 A 
HETATM    6  C   UNL     1       3.223  -0.415  -1.549  1.00  0.00     0.109 A 
HETATM    7  N   UNL     1       3.053  -0.826  -0.251  1.00  0.00    -0.344 N 
ENDROOT
BRANCH   7   8
HETATM    8  C   UNL     1       2.598  -2.151   0.130  1.00  0.00     0.165 C 
BRANCH   8   9
HETATM    9  C   UNL     1       1.071  -2.344   0.134  1.00  0.00     0.238 C 
HETATM   10  C   UNL     1       0.349  -1.629   1.278  1.00  0.00     0.039 C 
HETATM   11  C   UNL     1      -0.686  -2.616   1.803  1.00  0.00     0.032 C 
HETATM   12  C   UNL     1      -0.654  -3.772   0.829  1.00  0.00     0.270 C 
HETATM   13  N   UNL     1       0.722  -3.763   0.339  1.00  0.00     0.089 N 
HETATM   14  H   UNL     1       0.787  -4.286  -0.535  1.00  0.00     0.316 HD
ENDBRANCH   8   9
ENDBRANCH   7   8
TORSDOF 2
