REMARK  5 active torsions:
REMARK  status: ('A' for Active; 'I' for Inactive)
REMARK    1  A    between atoms: S_2  and  C_5 
REMARK    2  A    between atoms: C_8  and  N_9 
REMARK       I    between atoms: N_9  and  C_10 
REMARK       I    between atoms: C_10  and  N_12 
REMARK    3  A    between atoms: N_12  and  C_13 
REMARK    4  A    between atoms: C_13  and  C_14 
REMARK    5  A    between atoms: C_14  and  O_15 
ROOT
HETATM    1  N   UNL     1       4.466  -5.097   2.852  1.00  0.00    -0.308 N 
HETATM    2  C   UNL     1       3.920  -6.324   2.558  1.00  0.00     0.320 C 
HETATM    3  O   UNL     1       2.967  -6.533   1.815  1.00  0.00    -0.247 OA
HETATM    4  N   UNL     1       4.524  -7.360   3.224  1.00  0.00    -0.340 N 
HETATM    5  H   UNL     1       4.977  -5.032   3.720  1.00  0.00     0.170 HD
HETATM    6  H   UNL     1       5.334  -7.194   3.803  1.00  0.00     0.164 HD
ENDROOT
BRANCH   1   7
HETATM    7  C   UNL     1       4.059  -3.887   2.241  1.00  0.00     0.051 A 
HETATM    8  C   UNL     1       3.423  -3.844   0.998  1.00  0.00     0.034 A 
HETATM    9  C   UNL     1       2.988  -2.632   0.473  1.00  0.00     0.044 A 
HETATM   10  C   UNL     1       3.230  -1.492   1.220  1.00  0.00     0.128 A 
HETATM   11  N   UNL     1       3.883  -1.461   2.411  1.00  0.00    -0.355 N 
HETATM   12  C   UNL     1       4.286  -2.668   2.884  1.00  0.00     0.118 A 
ATOM     13  HN  UNL     1       4.058  -0.591   2.915  1.00  0.00     0.166 HD
BRANCH  10  14
HETATM   14  S   UNL     1       2.628   0.072   0.624  1.00  0.00     0.187 S 
HETATM   15  C   UNL     1       3.084   1.257   1.856  1.00  0.00     0.168 C 
HETATM   16  O   UNL     1       1.176  -0.009   0.604  1.00  0.00    -0.222 OA
HETATM   17  O   UNL     1       3.369   0.380  -0.586  1.00  0.00    -0.222 OA
ENDBRANCH  10  14
ENDBRANCH   1   7
BRANCH   4  18
HETATM   18  C   UNL     1       4.062  -8.731   3.028  1.00  0.00     0.162 C 
BRANCH  18  19
HETATM   19  C   UNL     1       2.824  -9.105   3.899  1.00  0.00     0.074 C 
HETATM   20  C   UNL     1       3.131  -9.027   5.403  1.00  0.00     0.039 C 
HETATM   21  C   UNL     1       4.120 -10.098   5.855  1.00  0.00     0.003 C 
HETATM   22  C   UNL     1       3.628 -11.497   5.493  1.00  0.00     0.000 C 
HETATM   23  C   UNL     1       3.269 -11.626   4.014  1.00  0.00     0.003 C 
HETATM   24  C   UNL     1       2.321 -10.520   3.556  1.00  0.00     0.039 C 
BRANCH  19  25
HETATM   25  O   UNL     1       1.730  -8.210   3.651  1.00  0.00    -0.388 OA
HETATM   26  H   UNL     1       1.946  -7.655   2.872  1.00  0.00     0.210 HD
ENDBRANCH  19  25
ENDBRANCH  18  19
ENDBRANCH   4  18
TORSDOF 5
