REMARK  8 active torsions:
REMARK  status: ('A' for Active; 'I' for Inactive)
REMARK    1  A    between atoms: C_2  and  C_3 
REMARK    2  A    between atoms: C_3  and  C_4 
REMARK    3  A    between atoms: C_3  and  C_6 
REMARK    4  A    between atoms: C_6  and  N_7 
REMARK    5  A    between atoms: N_7  and  C_8 
REMARK    6  A    between atoms: C_8  and  C_9 
REMARK    7  A    between atoms: C_9  and  O_11 
REMARK    8  A    between atoms: C_9  and  C_12 
ROOT
HETATM    1  C   UNL     1       7.106  -1.980  -1.428  1.00  0.00     0.110 C 
HETATM    2  C   UNL     1       8.631  -2.069  -1.596  1.00  0.00     0.053 C 
ENDROOT
BRANCH   1   3
HETATM    3  C   UNL     1       6.535  -0.906  -2.431  1.00  0.00     0.311 C 
BRANCH   3   4
HETATM    4  N   UNL     1       5.072  -0.738  -2.508  1.00  0.00     0.087 N 
HETATM    5  H   UNL     1       4.835  -0.072  -3.240  1.00  0.00     0.316 HD
BRANCH   4   6
HETATM    6  C   UNL     1       4.459  -0.326  -1.247  1.00  0.00     0.274 C 
BRANCH   6   7
HETATM    7  C   UNL     1       2.917  -0.330  -1.317  1.00  0.00     0.013 C 
BRANCH   7   8
HETATM    8  C   UNL     1       2.393  -1.751  -1.631  1.00  0.00     0.002 C 
HETATM    9  C   UNL     1       0.878  -1.849  -1.720  1.00  0.00     0.005 C 
ENDBRANCH   7   8
BRANCH   7  10
HETATM   10  C   UNL     1       2.326   0.273  -0.020  1.00  0.00     0.002 C 
HETATM   11  C   UNL     1       2.704  -0.450   1.268  1.00  0.00     0.005 C 
ENDBRANCH   7  10
ENDBRANCH   6   7
ENDBRANCH   4   6
ENDBRANCH   3   4
ENDBRANCH   1   3
BRANCH   1  12
HETATM   12  O   UNL     1       6.926  -1.533  -0.067  1.00  0.00    -0.383 OA
HETATM   13  H   UNL     1       7.189  -0.600  -0.034  1.00  0.00     0.211 HD
ENDBRANCH   1  12
BRANCH   1  14
HETATM   14  C   UNL     1       6.467  -3.329  -1.633  1.00  0.00     0.011 A 
HETATM   15  C   UNL     1       6.524  -4.153  -2.785  1.00  0.00     0.119 A 
HETATM   16  N   UNL     1       5.837  -5.290  -2.649  1.00  0.00    -0.310 N 
HETATM   17  N   UNL     1       5.307  -5.189  -1.419  1.00  0.00    -0.307 N 
ATOM     18  HN  UNL     1       5.738  -6.053  -3.319  1.00  0.00     0.186 HD
HETATM   19  C   UNL     1       4.450  -6.232  -0.911  1.00  0.00     0.177 C 
HETATM   20  C   UNL     1       5.661  -4.046  -0.768  1.00  0.00     0.121 A 
ENDBRANCH   1  14
TORSDOF 8
