REMARK  7 active torsions:
REMARK  status: ('A' for Active; 'I' for Inactive)
REMARK    1  A    between atoms: C_2  and  S_3 
REMARK    2  A    between atoms: S_3  and  N_6 
REMARK    3  A    between atoms: C_9  and  N_12 
REMARK       I    between atoms: N_12  and  C_13 
REMARK    4  A    between atoms: C_13  and  C_15 
REMARK    5  A    between atoms: N_20  and  C_21 
REMARK    6  A    between atoms: C_21  and  C_22 
REMARK    7  A    between atoms: C_22  and  O_23 
ROOT
HETATM    1  N   UNL     1       7.137  -2.128  -3.636  1.00  0.00    -0.351 N 
HETATM    2  C   UNL     1       7.833  -2.965  -4.478  1.00  0.00     0.269 C 
HETATM    3  O   UNL     1       7.347  -3.794  -5.231  1.00  0.00    -0.266 OA
HETATM    4  H   UNL     1       7.696  -1.607  -2.965  1.00  0.00     0.163 HD
ENDROOT
BRANCH   2   5
HETATM    5  C   UNL     1       9.344  -2.748  -4.447  1.00  0.00     0.116 A 
HETATM    6  C   UNL     1      10.062  -3.034  -5.701  1.00  0.00     0.042 A 
HETATM    7  C   UNL     1      11.368  -2.768  -5.712  1.00  0.00     0.078 A 
HETATM    8  C   UNL     1      12.048  -2.246  -4.509  1.00  0.00     0.262 A 
HETATM    9  O   UNL     1      13.246  -1.987  -4.566  1.00  0.00    -0.267 OA
HETATM   10  N   UNL     1      11.255  -2.100  -3.374  1.00  0.00    -0.255 N 
HETATM   11  N   UNL     1       9.885  -2.304  -3.351  1.00  0.00    -0.290 N 
ATOM     12  HN  UNL     1       9.329  -2.116  -2.517  1.00  0.00     0.187 HD
BRANCH  10  13
HETATM   13  C   UNL     1      11.877  -1.698  -2.117  1.00  0.00     0.178 C 
BRANCH  13  14
HETATM   14  C   UNL     1      12.017  -0.185  -1.973  1.00  0.00     0.189 C 
BRANCH  14  15
HETATM   15  O   UNL     1      12.624   0.102  -0.709  1.00  0.00    -0.394 OA
HETATM   16  C   UNL     1      12.800   1.499  -0.512  1.00  0.00     0.201 C 
ENDBRANCH  14  15
ENDBRANCH  13  14
ENDBRANCH  10  13
ENDBRANCH   2   5
BRANCH   1  17
HETATM   17  C   UNL     1       5.683  -2.161  -3.540  1.00  0.00     0.087 C 
HETATM   18  C   UNL     1       5.132  -0.773  -3.203  1.00  0.00     0.045 C 
HETATM   19  C   UNL     1       5.253  -0.433  -1.723  1.00  0.00     0.137 C 
HETATM   20  N   UNL     1       4.700  -1.503  -0.858  1.00  0.00    -0.311 N 
HETATM   21  C   UNL     1       5.380  -2.805  -1.110  1.00  0.00     0.137 C 
HETATM   22  C   UNL     1       5.204  -3.237  -2.560  1.00  0.00     0.045 C 
BRANCH  20  23
HETATM   23  S   UNL     1       3.012  -1.602  -0.648  1.00  0.00     0.228 S 
HETATM   24  O   UNL     1       2.757  -2.694   0.266  1.00  0.00    -0.206 OA
HETATM   25  O   UNL     1       2.394  -1.569  -1.956  1.00  0.00    -0.206 OA
BRANCH  23  26
HETATM   26  C   UNL     1       2.621  -0.074   0.203  1.00  0.00     0.159 C 
HETATM   27  C   UNL     1       1.150  -0.036   0.579  1.00  0.00     0.023 C 
ENDBRANCH  23  26
ENDBRANCH  20  23
ENDBRANCH   1  17
TORSDOF 7
