REMARK  4 active torsions:
REMARK  status: ('A' for Active; 'I' for Inactive)
REMARK    1  A    between atoms: C_2  and  C_4 
REMARK    2  A    between atoms: C_7  and  C_8 
REMARK    3  A    between atoms: C_8  and  C_9 
REMARK       I    between atoms: C_9  and  N_11 
REMARK    4  A    between atoms: N_11  and  C_12 
ROOT
HETATM    1  C   UNL     1       4.111   1.869  -4.366  1.00  0.00     0.181 C 
ENDROOT
BRANCH   1   2
HETATM    2  C   UNL     1       4.937   1.752  -3.149  1.00  0.00     0.112 A 
HETATM    3  N   UNL     1       6.242   1.328  -3.189  1.00  0.00    -0.326 N 
HETATM    4  C   UNL     1       6.556   1.297  -1.912  1.00  0.00     0.151 A 
ATOM      5  HN  UNL     1       6.818   1.097  -3.998  1.00  0.00     0.169 HD
HETATM    6  O   UNL     1       5.562   1.757  -1.097  1.00  0.00    -0.223 OA
HETATM    7  N   UNL     1       4.489   2.080  -1.930  1.00  0.00    -0.247 N 
ATOM      8  HN  UNL     1       3.583   2.471  -1.672  1.00  0.00     0.196 HD
BRANCH   4   9
HETATM    9  C   UNL     1       7.767   0.735  -1.256  1.00  0.00     0.055 C 
HETATM   10  C   UNL     1       7.902  -0.741  -1.633  1.00  0.00     0.018 C 
HETATM   11  C   UNL     1       9.019   1.510  -1.655  1.00  0.00     0.018 C 
ENDBRANCH   4   9
ENDBRANCH   1   2
BRANCH   1  12
HETATM   12  C   UNL     1       4.047   0.548  -5.109  1.00  0.00     0.225 C 
HETATM   13  O   UNL     1       3.078  -0.203  -5.044  1.00  0.00    -0.273 OA
HETATM   14  N   UNL     1       5.145   0.303  -5.910  1.00  0.00    -0.356 N 
HETATM   15  H   UNL     1       5.989   0.828  -5.705  1.00  0.00     0.162 HD
BRANCH  14  16
HETATM   16  C   UNL     1       5.227  -0.825  -6.830  1.00  0.00     0.084 C 
HETATM   17  C   UNL     1       5.474  -2.173  -6.146  1.00  0.00     0.025 C 
HETATM   18  C   UNL     1       6.900  -2.354  -5.622  1.00  0.00     0.002 C 
HETATM   19  C   UNL     1       7.971  -1.997  -6.650  1.00  0.00     0.000 C 
HETATM   20  C   UNL     1       7.723  -0.639  -7.295  1.00  0.00     0.002 C 
HETATM   21  C   UNL     1       6.315  -0.550  -7.884  1.00  0.00     0.025 C 
ENDBRANCH  14  16
ENDBRANCH   1  12
TORSDOF 4
