REMARK  4 active torsions:
REMARK  status: ('A' for Active; 'I' for Inactive)
REMARK    1  A    between atoms: N_6  and  C_7 
REMARK    2  A    between atoms: C_7  and  C_8 
REMARK    3  A    between atoms: C_8  and  O_9 
REMARK    4  A    between atoms: C_8  and  C_10 
ROOT
HETATM    1  C   UNL     1       6.624   0.131  -0.068  1.00  0.00     0.169 C 
ENDROOT
BRANCH   1   2
HETATM    2  N   UNL     1       5.169   0.039   0.012  1.00  0.00    -0.307 N 
HETATM    3  C   UNL     1       4.414   0.040  -1.130  1.00  0.00     0.186 A 
HETATM    4  N   UNL     1       3.125   0.022  -1.163  1.00  0.00    -0.355 N 
HETATM    5  C   UNL     1       2.463  -0.003   0.040  1.00  0.00     0.017 A 
ATOM      6  HN  UNL     1       2.617   0.026  -2.048  1.00  0.00     0.166 HD
HETATM    7  C   UNL     1       0.961   0.038  -0.077  1.00  0.00     0.069 C 
HETATM    8  C   UNL     1       3.077  -0.056   1.236  1.00  0.00     0.028 A 
HETATM    9  C   UNL     1       4.565  -0.074   1.244  1.00  0.00     0.256 A 
HETATM   10  C   UNL     1       2.365  -0.083   2.553  1.00  0.00     0.056 C 
HETATM   11  O   UNL     1       5.197  -0.168   2.293  1.00  0.00    -0.267 OA
ENDBRANCH   1   2
BRANCH   1  12
HETATM   12  C   UNL     1       7.330  -1.245  -0.119  1.00  0.00     0.172 C 
BRANCH  12  13
HETATM   13  O   UNL     1       6.935  -1.953  -1.299  1.00  0.00    -0.389 OA
HETATM   14  H   UNL     1       7.406  -1.566  -2.057  1.00  0.00     0.210 HD
ENDBRANCH  12  13
BRANCH  12  15
HETATM   15  C   UNL     1       8.839  -1.098  -0.104  1.00  0.00     0.013 A 
HETATM   16  C   UNL     1       9.612  -1.663   0.923  1.00  0.00     0.055 A 
HETATM   17  C   UNL     1      10.996  -1.476   0.938  1.00  0.00     0.117 A 
HETATM   18  F   UNL     1      11.721  -2.014   1.926  1.00  0.00    -0.206 F 
HETATM   19  C   UNL     1      11.637  -0.737  -0.051  1.00  0.00     0.045 A 
HETATM   20  C   UNL     1      10.886  -0.188  -1.085  1.00  0.00     0.046 A 
HETATM   21  C   UNL     1       9.506  -0.379  -1.106  1.00  0.00     0.125 A 
HETATM   22  F   UNL     1       8.804   0.134  -2.127  1.00  0.00    -0.205 F 
ENDBRANCH  12  15
ENDBRANCH   1  12
TORSDOF 4
