REMARK  6 active torsions:
REMARK  status: ('A' for Active; 'I' for Inactive)
REMARK    1  A    between atoms: N_2  and  C_17 
REMARK    2  A    between atoms: N_4  and  C_7 
REMARK    3  A    between atoms: C_9  and  C_20 
REMARK    4  A    between atoms: C_14  and  C_20 
REMARK    5  A    between atoms: C_17  and  C_19 
REMARK    6  A    between atoms: C_19  and  O_27 
ROOT
HETATM    1  C   UNL     1       0.401  -0.824   0.043  1.00  0.00     0.122 A 
HETATM    2  N   UNL     1       1.426   1.102  -0.059  1.00  0.00    -0.324 N 
HETATM    3  C   UNL     1       0.178   0.537  -0.059  1.00  0.00     0.140 A 
HETATM    4  N   UNL     1       1.759  -1.093   0.061  1.00  0.00    -0.346 N 
ATOM      5  HN  UNL     1       2.210  -2.007   0.101  1.00  0.00     0.167 HD
HETATM    6  C   UNL     1      -0.739  -1.645   0.122  1.00  0.00     0.135 A 
HETATM    7  C   UNL     1       2.342   0.085   0.016  1.00  0.00     0.185 A 
HETATM    8  N   UNL     1      -1.000   1.176  -0.119  1.00  0.00    -0.336 N 
ATOM      9  HN  UNL     1      -1.110   2.187  -0.202  1.00  0.00     0.168 HD
HETATM   10  N   UNL     1      -1.960  -1.047   0.069  1.00  0.00    -0.337 N 
ATOM     11  HN  UNL     1      -2.814  -1.602   0.121  1.00  0.00     0.168 HD
HETATM   12  C   UNL     1      -2.018   0.296  -0.054  1.00  0.00     0.183 A 
ENDROOT
BRANCH   6  13
HETATM   13  N   UNL     1      -0.655  -3.037   0.229  1.00  0.00    -0.364 N 
HETATM   14  C   UNL     1      -1.631  -3.986   0.638  1.00  0.00     0.135 C 
HETATM   15  C   UNL     1      -0.521  -5.060   0.445  1.00  0.00    -0.004 C 
HETATM   16  C   UNL     1       0.454  -3.859   0.584  1.00  0.00     0.135 C 
HETATM   17  C   UNL     1      -0.555  -5.667  -0.965  1.00  0.00     0.019 C 
BRANCH  15  18
HETATM   18  C   UNL     1      -0.447  -6.117   1.546  1.00  0.00     0.130 C 
BRANCH  18  19
HETATM   19  C   UNL     1       0.877  -6.863   1.563  1.00  0.00     0.388 C 
HETATM   20  F   UNL     1       1.819  -6.295   0.784  1.00  0.00    -0.171 F 
HETATM   21  F   UNL     1       1.375  -6.912   2.819  1.00  0.00    -0.171 F 
HETATM   22  F   UNL     1       0.714  -8.138   1.142  1.00  0.00    -0.171 F 
ENDBRANCH  18  19
ENDBRANCH  15  18
ENDBRANCH   6  13
BRANCH   2  23
HETATM   23  C   UNL     1       1.716   2.517   0.053  1.00  0.00     0.169 C 
BRANCH  23  24
HETATM   24  C   UNL     1       2.081   3.233  -1.269  1.00  0.00     0.078 C 
HETATM   25  C   UNL     1       2.443   4.696  -0.947  1.00  0.00     0.066 C 
HETATM   26  C   UNL     1       1.204   5.551  -0.737  1.00  0.00     0.170 C 
HETATM   27  O   UNL     1       0.401   5.523  -1.912  1.00  0.00    -0.391 OA
HETATM   28  C   UNL     1      -0.111   4.222  -2.185  1.00  0.00     0.170 C 
HETATM   29  C   UNL     1       1.007   3.202  -2.373  1.00  0.00     0.066 C 
BRANCH  24  30
HETATM   30  O   UNL     1       3.285   2.622  -1.771  1.00  0.00    -0.388 OA
HETATM   31  H   UNL     1       3.061   1.749  -2.141  1.00  0.00     0.210 HD
ENDBRANCH  24  30
ENDBRANCH  23  24
ENDBRANCH   2  23
TORSDOF 6
