REMARK  8 active torsions:
REMARK  status: ('A' for Active; 'I' for Inactive)
REMARK    1  A    between atoms: C_2  and  N_3 
REMARK    2  A    between atoms: C_2  and  C_14 
REMARK    3  A    between atoms: N_3  and  C_4 
REMARK    4  A    between atoms: C_4  and  C_5 
REMARK    5  A    between atoms: C_5  and  O_6 
REMARK    6  A    between atoms: C_5  and  C_7 
REMARK    7  A    between atoms: C_7  and  N_8 
REMARK    8  A    between atoms: C_14  and  N_16 
ROOT
HETATM    1  N   UNL     1       2.962   0.552   1.063  1.00  0.00     0.092 N 
HETATM    2  H   UNL     1       3.981   0.495   1.119  1.00  0.00     0.316 HD
ENDROOT
BRANCH   1   3
HETATM    3  C   UNL     1       2.488  -0.053  -0.197  1.00  0.00     0.240 C 
HETATM    4  C   UNL     1       3.166   0.645  -1.385  1.00  0.00     0.045 C 
BRANCH   3   5
HETATM    5  C   UNL     1       0.931  -0.139  -0.341  1.00  0.00     0.136 C 
HETATM    6  C   UNL     1       0.487  -0.825  -1.639  1.00  0.00     0.036 C 
BRANCH   5   7
HETATM    7  N   UNL     1       0.305  -0.791   0.809  1.00  0.00    -0.297 N 
HETATM    8  C   UNL     1       0.473  -2.086   1.227  1.00  0.00     0.118 A 
HETATM    9  C   UNL     1      -0.354  -2.260   2.317  1.00  0.00    -0.028 A 
HETATM   10  C   UNL     1      -0.539  -3.481   3.137  1.00  0.00     0.051 C 
HETATM   11  C   UNL     1      -0.987  -1.009   2.471  1.00  0.00     0.115 A 
HETATM   12  N   UNL     1      -0.600  -0.118   1.556  1.00  0.00    -0.309 N 
ATOM     13  HN  UNL     1      -0.914   0.846   1.446  1.00  0.00     0.186 HD
ENDBRANCH   5   7
ENDBRANCH   3   5
ENDBRANCH   1   3
BRANCH   1  14
HETATM   14  C   UNL     1       2.542   1.937   1.267  1.00  0.00     0.303 C 
BRANCH  14  15
HETATM   15  C   UNL     1       2.881   2.489   2.669  1.00  0.00     0.174 C 
BRANCH  15  16
HETATM   16  O   UNL     1       2.411   3.847   2.691  1.00  0.00    -0.392 OA
HETATM   17  H   UNL     1       1.451   3.823   2.529  1.00  0.00     0.210 HD
ENDBRANCH  15  16
BRANCH  15  18
HETATM   18  C   UNL     1       2.220   1.622   3.772  1.00  0.00     0.305 C 
BRANCH  18  19
HETATM   19  N   UNL     1       2.538   1.969   5.178  1.00  0.00     0.095 N 
HETATM   20  C   UNL     1       1.875   1.008   6.096  1.00  0.00     0.298 C 
HETATM   21  C   UNL     1       0.345   1.185   6.188  1.00  0.00     0.198 C 
HETATM   22  O   UNL     1      -0.024   2.536   6.512  1.00  0.00    -0.388 OA
HETATM   23  C   UNL     1       0.566   3.469   5.596  1.00  0.00     0.198 C 
HETATM   24  C   UNL     1       2.096   3.319   5.578  1.00  0.00     0.298 C 
ENDBRANCH  18  19
ENDBRANCH  15  18
ENDBRANCH  14  15
ENDBRANCH   1  14
TORSDOF 8
