REMARK  5 active torsions:
REMARK  status: ('A' for Active; 'I' for Inactive)
REMARK    1  A    between atoms: C_2  and  C_3 
REMARK    2  A    between atoms: C_2  and  N_10 
REMARK    3  A    between atoms: C_3  and  N_4 
REMARK       I    between atoms: N_10  and  C_11 
REMARK    4  A    between atoms: C_11  and  C_13 
REMARK    5  A    between atoms: C_13  and  N_14 
ROOT
HETATM    1  N   UNL     1       3.234  -1.003  -1.263  1.00  0.00    -0.354 N 
HETATM    2  C   UNL     1       4.580  -0.723  -1.377  1.00  0.00     0.236 C 
HETATM    3  O   UNL     1       5.179   0.079  -0.666  1.00  0.00    -0.272 OA
HETATM    4  H   UNL     1       2.786  -1.348  -2.111  1.00  0.00     0.162 HD
ENDROOT
BRANCH   1   5
HETATM    5  C   UNL     1       2.382  -0.422  -0.228  1.00  0.00     0.108 C 
HETATM    6  C   UNL     1       0.920  -0.746  -0.534  1.00  0.00     0.034 C 
BRANCH   5   7
HETATM    7  C   UNL     1       2.812  -0.792   1.233  1.00  0.00     0.296 C 
BRANCH   7   8
HETATM    8  N   UNL     1       3.000  -2.220   1.580  1.00  0.00     0.090 N 
HETATM    9  C   UNL     1       1.766  -3.005   1.691  1.00  0.00     0.272 C 
HETATM   10  C   UNL     1       0.906  -2.662   2.910  1.00  0.00     0.030 C 
HETATM   11  C   UNL     1       1.709  -2.801   4.197  1.00  0.00     0.003 C 
HETATM   12  C   UNL     1       3.022  -2.033   4.106  1.00  0.00     0.030 C 
HETATM   13  C   UNL     1       3.789  -2.369   2.820  1.00  0.00     0.272 C 
ENDBRANCH   7   8
ENDBRANCH   5   7
ENDBRANCH   1   5
BRANCH   2  14
HETATM   14  C   UNL     1       5.256  -1.450  -2.541  1.00  0.00     0.234 C 
BRANCH  14  15
HETATM   15  N   UNL     1       5.257  -0.620  -3.742  1.00  0.00    -0.316 N 
HETATM   16  C   UNL     1       6.332   0.215  -3.994  1.00  0.00     0.095 A 
HETATM   17  C   UNL     1       6.365   0.985  -5.087  1.00  0.00     0.017 A 
HETATM   18  C   UNL     1       5.274   0.951  -6.027  1.00  0.00     0.007 A 
HETATM   19  C   UNL     1       4.208   0.170  -5.803  1.00  0.00     0.074 A 
HETATM   20  C   UNL     1       4.142  -0.669  -4.575  1.00  0.00     0.247 A 
HETATM   21  O   UNL     1       3.138  -1.342  -4.347  1.00  0.00    -0.268 OA
ENDBRANCH  14  15
ENDBRANCH   2  14
TORSDOF 5
