REMARK  4 active torsions:
REMARK  status: ('A' for Active; 'I' for Inactive)
REMARK    1  A    between atoms: O_2  and  C_3 
REMARK    2  A    between atoms: C_9  and  N_10 
REMARK       I    between atoms: N_10  and  C_11 
REMARK       I    between atoms: C_11  and  N_13 
REMARK    3  A    between atoms: N_13  and  C_14 
REMARK    4  A    between atoms: N_17  and  C_20 
ROOT
HETATM    1  N   UNL     1       6.241  -1.169  -0.404  1.00  0.00    -0.305 N 
HETATM    2  C   UNL     1       5.330  -2.164  -0.129  1.00  0.00     0.321 C 
HETATM    3  O   UNL     1       4.942  -2.493   0.986  1.00  0.00    -0.247 OA
HETATM    4  N   UNL     1       4.854  -2.788  -1.269  1.00  0.00    -0.338 N 
HETATM    5  H   UNL     1       6.721  -1.198  -1.294  1.00  0.00     0.171 HD
HETATM    6  H   UNL     1       4.916  -2.247  -2.120  1.00  0.00     0.164 HD
ENDROOT
BRANCH   1   7
HETATM    7  C   UNL     1       6.815  -0.307   0.571  1.00  0.00     0.087 A 
HETATM    8  C   UNL     1       7.985   0.416   0.288  1.00  0.00     0.169 A 
HETATM    9  N   UNL     1       8.616   1.222   1.181  1.00  0.00    -0.345 N 
HETATM   10  C   UNL     1       8.063   1.330   2.406  1.00  0.00     0.090 A 
ATOM     11  HN  UNL     1       9.470   1.723   0.936  1.00  0.00     0.167 HD
HETATM   12  C   UNL     1       6.893   0.691   2.772  1.00  0.00     0.019 A 
HETATM   13  C   UNL     1       6.261  -0.127   1.840  1.00  0.00     0.035 A 
BRANCH   8  14
HETATM   14  O   UNL     1       8.533   0.283  -0.979  1.00  0.00    -0.339 OA
HETATM   15  C   UNL     1       9.764   1.000  -1.112  1.00  0.00     0.211 C 
ENDBRANCH   8  14
ENDBRANCH   1   7
BRANCH   4  16
HETATM   16  C   UNL     1       3.714  -3.707  -1.140  1.00  0.00     0.089 C 
HETATM   17  C   UNL     1       3.624  -4.726  -2.276  1.00  0.00     0.055 C 
HETATM   18  C   UNL     1       3.114  -4.119  -3.581  1.00  0.00     0.275 C 
HETATM   19  N   UNL     1       1.917  -3.283  -3.457  1.00  0.00     0.093 N 
HETATM   20  C   UNL     1       2.022  -2.304  -2.369  1.00  0.00     0.275 C 
HETATM   21  C   UNL     1       2.394  -2.939  -1.028  1.00  0.00     0.055 C 
BRANCH  19  22
HETATM   22  C   UNL     1       0.629  -3.997  -3.434  1.00  0.00     0.223 A 
HETATM   23  C   UNL     1       0.146  -4.863  -4.562  1.00  0.00     0.038 A 
HETATM   24  C   UNL     1      -0.413  -3.483  -4.401  1.00  0.00     0.038 A 
ENDBRANCH  19  22
ENDBRANCH   4  16
TORSDOF 4
