REMARK  8 active torsions:
REMARK  status: ('A' for Active; 'I' for Inactive)
REMARK    1  A    between atoms: N_1  and  C_2 
REMARK    2  A    between atoms: C_7  and  O_27 
REMARK    3  A    between atoms: C_10  and  N_12 
REMARK       I    between atoms: N_12  and  C_14 
REMARK    4  A    between atoms: C_13  and  C_22 
REMARK    5  A    between atoms: C_14  and  C_24 
REMARK    6  A    between atoms: C_19  and  O_21 
REMARK    7  A    between atoms: C_19  and  C_26 
REMARK    8  A    between atoms: O_21  and  C_22 
ROOT
HETATM    1  N   UNL     1       1.550   1.091  -0.144  1.00  0.00    -0.297 N 
HETATM    2  C   UNL     1       0.387   0.621   0.413  1.00  0.00     0.142 A 
HETATM    3  C   UNL     1       0.329  -0.723   0.046  1.00  0.00     0.122 A 
HETATM    4  N   UNL     1       1.416  -1.071  -0.725  1.00  0.00    -0.346 N 
ATOM      5  HN  UNL     1       1.622  -1.980  -1.138  1.00  0.00     0.167 HD
HETATM    6  C   UNL     1       2.128   0.031  -0.809  1.00  0.00     0.188 A 
HETATM    7  C   UNL     1      -0.764  -1.476   0.517  1.00  0.00     0.140 A 
HETATM    8  N   UNL     1      -0.497   1.279   1.182  1.00  0.00    -0.336 N 
ATOM      9  HN  UNL     1      -0.413   2.259   1.452  1.00  0.00     0.168 HD
HETATM   10  N   UNL     1      -1.692  -0.841   1.267  1.00  0.00    -0.337 N 
ATOM     11  HN  UNL     1      -2.512  -1.341   1.612  1.00  0.00     0.168 HD
HETATM   12  C   UNL     1      -1.514   0.465   1.550  1.00  0.00     0.183 A 
ENDROOT
BRANCH   1  13
HETATM   13  C   UNL     1       2.229   2.365   0.047  1.00  0.00     0.262 C 
HETATM   14  C   UNL     1       2.570   2.715   1.489  1.00  0.00     0.204 C 
HETATM   15  C   UNL     1       2.533   4.237   1.513  1.00  0.00     0.234 C 
HETATM   16  F   UNL     1       3.778   4.700   1.805  1.00  0.00    -0.244 F 
HETATM   17  C   UNL     1       2.071   4.666   0.118  1.00  0.00     0.185 C 
HETATM   18  O   UNL     1       1.499   3.479  -0.496  1.00  0.00    -0.353 OA
BRANCH  14  19
HETATM   19  O   UNL     1       3.867   2.204   1.826  1.00  0.00    -0.388 OA
HETATM   20  H   UNL     1       4.493   2.957   1.798  1.00  0.00     0.210 HD
ENDBRANCH  14  19
BRANCH  17  21
HETATM   21  C   UNL     1       3.226   5.224  -0.742  1.00  0.00     0.214 C 
BRANCH  21  22
HETATM   22  O   UNL     1       3.838   6.393  -0.161  1.00  0.00    -0.315 OA
BRANCH  22  23
HETATM   23  C   UNL     1       3.269   7.581  -0.492  1.00  0.00     0.293 C 
HETATM   24  O   UNL     1       2.295   7.715  -1.208  1.00  0.00    -0.259 OA
BRANCH  23  25
HETATM   25  C   UNL     1       3.994   8.729   0.119  1.00  0.00     0.039 A 
HETATM   26  C   UNL     1       4.789   8.601   1.264  1.00  0.00     0.017 A 
HETATM   27  C   UNL     1       5.386   9.735   1.828  1.00  0.00     0.001 A 
HETATM   28  C   UNL     1       5.200  10.991   1.248  1.00  0.00     0.000 A 
HETATM   29  C   UNL     1       4.423  11.120   0.099  1.00  0.00     0.001 A 
HETATM   30  C   UNL     1       3.818   9.993  -0.462  1.00  0.00     0.017 A 
ENDBRANCH  23  25
ENDBRANCH  22  23
ENDBRANCH  21  22
ENDBRANCH  17  21
ENDBRANCH   1  13
BRANCH   7  31
HETATM   31  N   UNL     1      -0.849  -2.848   0.198  1.00  0.00    -0.307 N 
HETATM   32  C   UNL     1      -1.840  -3.700   0.647  1.00  0.00     0.257 C 
HETATM   33  O   UNL     1      -2.746  -3.412   1.424  1.00  0.00    -0.267 OA
HETATM   34  H   UNL     1      -0.076  -3.205  -0.349  1.00  0.00     0.170 HD
BRANCH  32  35
HETATM   35  C   UNL     1      -1.785  -5.114   0.155  1.00  0.00     0.032 A 
HETATM   36  C   UNL     1      -2.316  -6.121   0.978  1.00  0.00     0.017 A 
HETATM   37  C   UNL     1      -2.360  -7.450   0.546  1.00  0.00     0.001 A 
HETATM   38  C   UNL     1      -1.878  -7.783  -0.717  1.00  0.00     0.000 A 
HETATM   39  C   UNL     1      -1.354  -6.789  -1.547  1.00  0.00     0.001 A 
HETATM   40  C   UNL     1      -1.304  -5.457  -1.114  1.00  0.00     0.017 A 
ENDBRANCH  32  35
ENDBRANCH   7  31
TORSDOF 8
