REMARK  6 active torsions:
REMARK  status: ('A' for Active; 'I' for Inactive)
REMARK    1  A    between atoms: C_4  and  O_5 
REMARK    2  A    between atoms: N_9  and  C_10 
REMARK    3  A    between atoms: C_10  and  C_11 
REMARK       I    between atoms: C_11  and  N_13 
REMARK    4  A    between atoms: N_13  and  C_14 
REMARK    5  A    between atoms: C_14  and  C_15 
REMARK    6  A    between atoms: C_15  and  C_19 
ROOT
HETATM    1  C   UNL     1       0.910   2.155   0.188  1.00  0.00     0.235 C 
HETATM    2  O   UNL     1       0.401   1.052   0.392  1.00  0.00    -0.272 OA
HETATM    3  N   UNL     1       0.136   3.318   0.148  1.00  0.00    -0.359 N 
HETATM    4  H   UNL     1       0.571   4.238   0.122  1.00  0.00     0.162 HD
ENDROOT
BRANCH   1   5
HETATM    5  C   UNL     1       2.425   2.267  -0.044  1.00  0.00     0.234 C 
BRANCH   5   6
HETATM    6  N   UNL     1       3.253   2.191   1.167  1.00  0.00    -0.310 N 
HETATM    7  C   UNL     1       3.724   0.981   1.708  1.00  0.00     0.014 A 
HETATM    8  C   UNL     1       3.346  -0.347   1.107  1.00  0.00     0.068 C 
HETATM    9  C   UNL     1       4.537   0.998   2.783  1.00  0.00     0.061 A 
HETATM   10  C   UNL     1       4.943   2.241   3.378  1.00  0.00     0.072 A 
HETATM   11  C   UNL     1       4.505   3.405   2.900  1.00  0.00     0.111 A 
HETATM   12  C   UNL     1       3.588   3.426   1.734  1.00  0.00     0.250 A 
HETATM   13  O   UNL     1       3.180   4.507   1.309  1.00  0.00    -0.268 OA
BRANCH  10  14
HETATM   14  O   UNL     1       5.796   2.195   4.456  1.00  0.00    -0.360 OA
HETATM   15  H   UNL     1       5.988   1.270   4.677  1.00  0.00     0.217 HD
ENDBRANCH  10  14
ENDBRANCH   5   6
ENDBRANCH   1   5
BRANCH   3  16
HETATM   16  C   UNL     1      -1.309   3.131   0.249  1.00  0.00     0.132 C 
BRANCH  16  17
HETATM   17  C   UNL     1      -2.189   4.404   0.380  1.00  0.00    -0.021 C 
HETATM   18  C   UNL     1      -2.005   5.343   1.633  1.00  0.00     0.011 C 
HETATM   19  C   UNL     1      -3.511   5.183   1.942  1.00  0.00     0.002 C 
HETATM   20  C   UNL     1      -3.485   3.887   1.137  1.00  0.00     0.011 C 
BRANCH  17  21
HETATM   21  C   UNL     1      -2.390   5.120  -0.981  1.00  0.00    -0.004 A 
HETATM   22  C   UNL     1      -3.216   6.360  -1.237  1.00  0.00     0.006 A 
HETATM   23  C   UNL     1      -3.673   5.041  -1.780  1.00  0.00     0.006 A 
ENDBRANCH  17  21
ENDBRANCH  16  17
ENDBRANCH   3  16
TORSDOF 6
