REMARK  4 active torsions:
REMARK  status: ('A' for Active; 'I' for Inactive)
REMARK    1  A    between atoms: C_2  and  N_3 
REMARK    2  A    between atoms: C_2  and  C_14 
REMARK       I    between atoms: N_3  and  C_4 
REMARK       I    between atoms: C_4  and  N_6 
REMARK    3  A    between atoms: N_6  and  C_7 
REMARK       I    between atoms: C_14  and  N_16 
REMARK    4  A    between atoms: N_16  and  C_17 
ROOT
HETATM    1  N   UNL     1       3.015  -1.058  -0.840  1.00  0.00    -0.330 N 
HETATM    2  C   UNL     1       4.290  -1.504  -0.579  1.00  0.00     0.322 C 
HETATM    3  O   UNL     1       4.969  -0.989   0.303  1.00  0.00    -0.247 OA
HETATM    4  N   UNL     1       4.667  -2.518  -1.419  1.00  0.00    -0.288 N 
HETATM    5  H   UNL     1       2.403  -1.624  -1.410  1.00  0.00     0.165 HD
HETATM    6  H   UNL     1       4.248  -2.552  -2.337  1.00  0.00     0.172 HD
ENDROOT
BRANCH   1   7
HETATM    7  C   UNL     1       2.421  -0.009  -0.014  1.00  0.00     0.174 C 
HETATM    8  C   UNL     1       0.900  -0.089  -0.029  1.00  0.00     0.042 C 
BRANCH   7   9
HETATM    9  C   UNL     1       2.890   1.376  -0.512  1.00  0.00     0.240 C 
HETATM   10  O   UNL     1       2.259   2.038  -1.333  1.00  0.00    -0.271 OA
HETATM   11  N   UNL     1       4.103   1.780   0.014  1.00  0.00    -0.355 N 
HETATM   12  H   UNL     1       4.698   1.041   0.394  1.00  0.00     0.162 HD
BRANCH  11  13
HETATM   13  C   UNL     1       4.709   3.040  -0.361  1.00  0.00     0.084 C 
HETATM   14  C   UNL     1       5.596   2.939  -1.606  1.00  0.00     0.025 C 
HETATM   15  C   UNL     1       6.779   3.879  -1.361  1.00  0.00     0.002 C 
HETATM   16  C   UNL     1       6.496   4.581  -0.040  1.00  0.00     0.002 C 
HETATM   17  C   UNL     1       5.628   3.594   0.722  1.00  0.00     0.025 C 
ENDBRANCH  11  13
ENDBRANCH   7   9
ENDBRANCH   1   7
BRANCH   4  18
HETATM   18  C   UNL     1       5.846  -3.217  -1.314  1.00  0.00     0.168 A 
HETATM   19  N   UNL     1       6.375  -3.892  -2.311  1.00  0.00    -0.279 N 
HETATM   20  N   UNL     1       7.567  -4.497  -1.954  1.00  0.00    -0.303 N 
ATOM     21  HN  UNL     1       5.956  -3.961  -3.238  1.00  0.00     0.189 HD
HETATM   22  C   UNL     1       7.853  -4.295  -0.686  1.00  0.00     0.160 A 
ATOM     23  HN  UNL     1       8.152  -5.033  -2.595  1.00  0.00     0.186 HD
HETATM   24  S   UNL     1       6.690  -3.371   0.165  1.00  0.00    -0.046 SA
ENDBRANCH   4  18
TORSDOF 4
