REMARK  4 active torsions:
REMARK  status: ('A' for Active; 'I' for Inactive)
REMARK    1  A    between atoms: C_2  and  O_3 
REMARK    2  A    between atoms: O_3  and  C_4 
REMARK    3  A    between atoms: C_10  and  N_11 
REMARK       I    between atoms: N_11  and  C_12 
REMARK       I    between atoms: C_12  and  N_14 
REMARK    4  A    between atoms: N_14  and  C_15 
ROOT
HETATM    1  N   UNL     1       4.560  -1.562   1.138  1.00  0.00    -0.305 N 
HETATM    2  C   UNL     1       3.278  -2.052   1.280  1.00  0.00     0.321 C 
HETATM    3  O   UNL     1       2.313  -1.449   1.735  1.00  0.00    -0.247 OA
HETATM    4  N   UNL     1       3.151  -3.351   0.836  1.00  0.00    -0.337 N 
HETATM    5  H   UNL     1       5.321  -2.228   1.089  1.00  0.00     0.171 HD
HETATM    6  H   UNL     1       3.907  -3.723   0.278  1.00  0.00     0.164 HD
ENDROOT
BRANCH   1   7
HETATM    7  C   UNL     1       4.958  -0.218   1.383  1.00  0.00     0.087 A 
HETATM    8  C   UNL     1       6.310   0.130   1.521  1.00  0.00     0.169 A 
HETATM    9  N   UNL     1       6.740   1.378   1.841  1.00  0.00    -0.345 N 
HETATM   10  C   UNL     1       5.809   2.341   1.973  1.00  0.00     0.090 A 
ATOM     11  HN  UNL     1       7.731   1.578   1.976  1.00  0.00     0.167 HD
HETATM   12  C   UNL     1       4.464   2.125   1.763  1.00  0.00     0.019 A 
HETATM   13  C   UNL     1       4.040   0.832   1.467  1.00  0.00     0.035 A 
BRANCH   8  14
HETATM   14  O   UNL     1       7.278  -0.846   1.314  1.00  0.00    -0.334 OA
BRANCH  14  15
HETATM   15  C   UNL     1       8.552  -0.243   1.021  1.00  0.00     0.173 C 
HETATM   16  C   UNL     1       9.598  -1.316   0.786  1.00  0.00     0.034 C 
ENDBRANCH  14  15
ENDBRANCH   8  14
ENDBRANCH   1   7
BRANCH   4  17
HETATM   17  C   UNL     1       1.869  -4.064   0.816  1.00  0.00     0.101 C 
HETATM   18  C   UNL     1       0.780  -3.396  -0.063  1.00  0.00     0.041 C 
HETATM   19  C   UNL     1      -0.606  -3.652   0.535  1.00  0.00     0.142 C 
HETATM   20  S   UNL     1      -0.385  -4.824   1.843  1.00  0.00     0.146 S 
HETATM   21  O   UNL     1      -1.242  -4.484   2.959  1.00  0.00    -0.228 OA
HETATM   22  O   UNL     1      -0.360  -6.153   1.268  1.00  0.00    -0.228 OA
HETATM   23  C   UNL     1       1.284  -4.341   2.199  1.00  0.00     0.165 C 
ENDBRANCH   4  17
TORSDOF 4
