REMARK  7 active torsions:
REMARK  status: ('A' for Active; 'I' for Inactive)
REMARK    1  A    between atoms: C_2  and  C_3 
REMARK    2  A    between atoms: C_3  and  O_4 
REMARK    3  A    between atoms: C_3  and  C_10 
REMARK    4  A    between atoms: O_4  and  C_5 
REMARK       I    between atoms: C_10  and  N_12 
REMARK    5  A    between atoms: N_12  and  C_13 
REMARK    6  A    between atoms: C_13  and  C_15 
REMARK    7  A    between atoms: C_15  and  N_17 
ROOT
HETATM    1  C   UNL     1       4.634  -0.893  -1.109  1.00  0.00     0.247 C 
HETATM    2  O   UNL     1       5.327  -0.036  -0.563  1.00  0.00    -0.271 OA
HETATM    3  N   UNL     1       5.163  -1.870  -1.930  1.00  0.00    -0.353 N 
HETATM    4  H   UNL     1       4.537  -2.194  -2.674  1.00  0.00     0.163 HD
ENDROOT
BRANCH   3   5
HETATM    5  C   UNL     1       6.605  -1.856  -2.218  1.00  0.00     0.105 C 
HETATM    6  C   UNL     1       7.408  -2.156  -0.939  1.00  0.00     0.034 C 
BRANCH   5   7
HETATM    7  C   UNL     1       7.036  -2.824  -3.352  1.00  0.00     0.127 C 
HETATM    8  C   UNL     1       6.683  -4.292  -3.101  1.00  0.00     0.036 C 
BRANCH   7   9
HETATM    9  N   UNL     1       6.548  -2.398  -4.658  1.00  0.00    -0.281 N 
HETATM   10  C   UNL     1       7.291  -2.059  -5.747  1.00  0.00     0.201 A 
HETATM   11  N   UNL     1       6.501  -1.858  -6.773  1.00  0.00    -0.346 N 
HETATM   12  C   UNL     1       5.261  -2.095  -6.256  1.00  0.00     0.198 A 
ATOM     13  HN  UNL     1       6.752  -1.590  -7.725  1.00  0.00     0.167 HD
HETATM   14  N   UNL     1       5.233  -2.415  -4.959  1.00  0.00    -0.293 N 
ATOM     15  HN  UNL     1       4.434  -2.617  -4.359  1.00  0.00     0.188 HD
ENDBRANCH   7   9
ENDBRANCH   5   7
ENDBRANCH   3   5
BRANCH   1  16
HETATM   16  C   UNL     1       3.098  -0.938  -0.932  1.00  0.00     0.213 C 
BRANCH  16  17
HETATM   17  C   UNL     1       2.703  -0.030   0.251  1.00  0.00     0.037 C 
HETATM   18  C   UNL     1       1.221  -0.009   0.591  1.00  0.00     0.008 C 
ENDBRANCH  16  17
BRANCH  16  19
HETATM   19  O   UNL     1       2.363  -0.699  -2.134  1.00  0.00    -0.371 OA
BRANCH  19  20
HETATM   20  C   UNL     1       2.729   0.450  -2.900  1.00  0.00     0.122 C 
HETATM   21  C   UNL     1       2.226   1.766  -2.306  1.00  0.00     0.032 C 
HETATM   22  C   UNL     1       1.592   2.567  -3.432  1.00  0.00     0.002 C 
HETATM   23  C   UNL     1       1.894   1.810  -4.711  1.00  0.00     0.002 C 
HETATM   24  C   UNL     1       2.062   0.365  -4.273  1.00  0.00     0.032 C 
ENDBRANCH  19  20
ENDBRANCH  16  19
ENDBRANCH   1  16
TORSDOF 7
