REMARK  4 active torsions:
REMARK  status: ('A' for Active; 'I' for Inactive)
REMARK    1  A    between atoms: C_2  and  C_3 
REMARK       I    between atoms: N_6  and  C_10 
REMARK       I    between atoms: C_10  and  N_12 
REMARK    2  A    between atoms: N_12  and  C_13 
REMARK    3  A    between atoms: C_13  and  C_14 
REMARK    4  A    between atoms: C_14  and  C_15 
ROOT
HETATM    1  C   UNL     1       2.909  -1.218   0.265  1.00  0.00     0.073 C 
HETATM    2  C   UNL     1       3.031  -1.352   1.790  1.00  0.00     0.047 C 
HETATM    3  C   UNL     1       4.338  -1.101  -0.344  1.00  0.00     0.165 C 
HETATM    4  N   UNL     1       4.292  -1.293  -1.797  1.00  0.00    -0.329 N 
HETATM    5  C   UNL     1       3.702  -2.578  -2.161  1.00  0.00     0.153 C 
HETATM    6  C   UNL     1       2.284  -2.658  -1.588  1.00  0.00     0.189 C 
HETATM    7  O   UNL     1       2.268  -2.443  -0.167  1.00  0.00    -0.377 OA
HETATM    8  C   UNL     1       4.428  -0.339  -2.782  1.00  0.00     0.318 C 
HETATM    9  O   UNL     1       4.299  -0.602  -3.976  1.00  0.00    -0.247 OA
HETATM   10  N   UNL     1       4.709   0.933  -2.367  1.00  0.00    -0.343 N 
HETATM   11  H   UNL     1       4.532   1.201  -1.413  1.00  0.00     0.164 HD
ENDROOT
BRANCH  10  12
HETATM   12  C   UNL     1       4.823   2.004  -3.343  1.00  0.00     0.130 C 
BRANCH  12  13
HETATM   13  C   UNL     1       5.010   3.389  -2.726  1.00  0.00     0.077 C 
BRANCH  13  14
HETATM   14  C   UNL     1       6.251   3.509  -1.905  1.00  0.00     0.017 A 
HETATM   15  C   UNL     1       7.512   3.851  -2.362  1.00  0.00     0.076 A 
HETATM   16  S   UNL     1       8.624   3.880  -1.058  1.00  0.00    -0.095 SA
HETATM   17  C   UNL     1       7.355   3.438   0.005  1.00  0.00     0.138 A 
HETATM   18  N   UNL     1       6.170   3.268  -0.541  1.00  0.00    -0.363 N 
ATOM     19  HN  UNL     1       5.323   3.001  -0.039  1.00  0.00     0.165 HD
ENDBRANCH  13  14
ENDBRANCH  12  13
ENDBRANCH  10  12
BRANCH   1  20
HETATM   20  C   UNL     1       2.075   0.033  -0.106  1.00  0.00     0.035 C 
HETATM   21  C   UNL     1       0.638   0.031   0.396  1.00  0.00     0.008 C 
ENDBRANCH   1  20
TORSDOF 4
