REMARK  5 active torsions:
REMARK  status: ('A' for Active; 'I' for Inactive)
REMARK    1  A    between atoms: C_2  and  C_3 
REMARK    2  A    between atoms: C_3  and  C_4 
REMARK    3  A    between atoms: C_3  and  C_6 
REMARK    4  A    between atoms: C_8  and  N_12 
REMARK       I    between atoms: N_12  and  C_13 
REMARK       I    between atoms: C_13  and  N_15 
REMARK    5  A    between atoms: N_15  and  C_16 
ROOT
HETATM    1  N   UNL     1       5.499   2.546  -2.636  1.00  0.00    -0.338 N 
HETATM    2  C   UNL     1       4.984   3.592  -3.336  1.00  0.00     0.322 C 
HETATM    3  O   UNL     1       3.983   3.512  -4.039  1.00  0.00    -0.247 OA
HETATM    4  N   UNL     1       5.583   4.802  -3.142  1.00  0.00    -0.295 N 
HETATM    5  H   UNL     1       6.443   2.691  -2.283  1.00  0.00     0.164 HD
HETATM    6  H   UNL     1       5.068   5.567  -3.549  1.00  0.00     0.172 HD
ENDROOT
BRANCH   1   7
HETATM    7  C   UNL     1       4.927   1.218  -2.616  1.00  0.00     0.090 C 
HETATM    8  C   UNL     1       5.158   0.564  -1.256  1.00  0.00     0.057 C 
HETATM    9  C   UNL     1       4.527  -0.830  -1.217  1.00  0.00     0.127 C 
HETATM   10  O   UNL     1       5.099  -1.619  -2.276  1.00  0.00    -0.385 OA
HETATM   11  C   UNL     1       4.972  -1.079  -3.593  1.00  0.00     0.170 C 
HETATM   12  C   UNL     1       5.522   0.336  -3.706  1.00  0.00     0.051 C 
BRANCH   9  13
HETATM   13  C   UNL     1       2.966  -0.861  -1.221  1.00  0.00     0.014 C 
BRANCH  13  14
HETATM   14  C   UNL     1       2.466  -2.326  -1.193  1.00  0.00     0.002 C 
HETATM   15  C   UNL     1       0.952  -2.469  -1.295  1.00  0.00     0.005 C 
ENDBRANCH  13  14
BRANCH  13  16
HETATM   16  C   UNL     1       2.322   0.018  -0.120  1.00  0.00     0.002 C 
HETATM   17  C   UNL     1       2.647  -0.369   1.317  1.00  0.00     0.005 C 
ENDBRANCH  13  16
ENDBRANCH   9  13
ENDBRANCH   1   7
BRANCH   4  18
HETATM   18  C   UNL     1       6.720   5.084  -2.379  1.00  0.00     0.108 A 
HETATM   19  C   UNL     1       6.970   6.409  -2.045  1.00  0.00     0.049 A 
HETATM   20  C   UNL     1       8.071   6.699  -1.242  1.00  0.00     0.005 A 
HETATM   21  C   UNL     1       8.907   5.669  -0.827  1.00  0.00     0.017 A 
HETATM   22  C   UNL     1       8.603   4.384  -1.230  1.00  0.00     0.089 A 
HETATM   23  N   UNL     1       7.526   4.072  -1.982  1.00  0.00    -0.352 N 
ATOM     24  HN  UNL     1       7.327   3.106  -2.242  1.00  0.00     0.166 HD
ENDBRANCH   4  18
TORSDOF 5
