REMARK  4 active torsions:
REMARK  status: ('A' for Active; 'I' for Inactive)
REMARK    1  A    between atoms: C_2  and  C_3 
REMARK       I    between atoms: C_2  and  N_12 
REMARK    2  A    between atoms: C_3  and  N_4 
REMARK    3  A    between atoms: N_12  and  C_13 
REMARK    4  A    between atoms: C_13  and  C_14 
ROOT
HETATM    1  O   UNL     1       2.884  -1.061   0.393  1.00  0.00    -0.272 OA
HETATM    2  C   UNL     1       2.352  -0.102  -0.162  1.00  0.00     0.237 C 
HETATM    3  N   UNL     1       3.066   0.964  -0.674  1.00  0.00    -0.359 N 
HETATM    4  H   UNL     1       2.581   1.712  -1.153  1.00  0.00     0.162 HD
ENDROOT
BRANCH   2   5
HETATM    5  C   UNL     1       0.848  -0.040  -0.428  1.00  0.00     0.255 C 
BRANCH   5   6
HETATM    6  N   UNL     1       0.093  -0.681   0.637  1.00  0.00    -0.246 N 
HETATM    7  N   UNL     1       0.147  -2.088   0.650  1.00  0.00    -0.261 N 
HETATM    8  C   UNL     1      -0.396  -2.825   1.667  1.00  0.00     0.260 C 
HETATM    9  H   UNL     1       0.920  -2.536   0.162  1.00  0.00     0.190 HD
HETATM   10  O   UNL     1      -0.224  -4.033   1.781  1.00  0.00    -0.267 OA
HETATM   11  C   UNL     1      -1.220  -2.088   2.640  1.00  0.00     0.081 C 
HETATM   12  C   UNL     1      -1.236  -0.752   2.653  1.00  0.00     0.081 C 
HETATM   13  C   UNL     1      -0.475   0.040   1.664  1.00  0.00     0.262 C 
HETATM   14  O   UNL     1      -0.425   1.260   1.768  1.00  0.00    -0.267 OA
ENDBRANCH   5   6
ENDBRANCH   2   5
BRANCH   3  15
HETATM   15  C   UNL     1       4.501   1.083  -0.501  1.00  0.00     0.127 C 
BRANCH  15  16
HETATM   16  C   UNL     1       4.870   2.338   0.285  1.00  0.00     0.003 C 
HETATM   17  C   UNL     1       6.386   2.500   0.452  1.00  0.00     0.006 C 
HETATM   18  C   UNL     1       6.602   3.120   1.833  1.00  0.00     0.000 C 
HETATM   19  C   UNL     1       5.214   3.394   2.393  1.00  0.00     0.000 C 
HETATM   20  C   UNL     1       4.333   2.357   1.716  1.00  0.00     0.006 C 
ENDBRANCH  15  16
ENDBRANCH   3  15
TORSDOF 4
