REMARK  4 active torsions:
REMARK  status: ('A' for Active; 'I' for Inactive)
REMARK    1  A    between atoms: N_2  and  C_4 
REMARK    2  A    between atoms: C_11  and  N_12 
REMARK       I    between atoms: N_12  and  C_13 
REMARK       I    between atoms: C_13  and  N_15 
REMARK    3  A    between atoms: N_15  and  C_16 
REMARK    4  A    between atoms: C_20  and  C_22 
ROOT
HETATM    1  N   UNL     1       2.512   3.058   0.443  1.00  0.00    -0.304 N 
HETATM    2  C   UNL     1       2.271   2.610  -0.838  1.00  0.00     0.321 C 
HETATM    3  O   UNL     1       3.004   1.863  -1.469  1.00  0.00    -0.247 OA
HETATM    4  N   UNL     1       1.060   3.069  -1.338  1.00  0.00    -0.338 N 
HETATM    5  H   UNL     1       1.734   3.429   0.963  1.00  0.00     0.171 HD
HETATM    6  H   UNL     1       0.852   4.019  -1.039  1.00  0.00     0.164 HD
ENDROOT
BRANCH   1   7
HETATM    7  C   UNL     1       3.562   2.499   1.222  1.00  0.00     0.096 A 
HETATM    8  C   UNL     1       3.403   2.099   2.560  1.00  0.00     0.132 A 
HETATM    9  N   UNL     1       4.470   1.625   3.249  1.00  0.00    -0.337 N 
HETATM   10  C   UNL     1       5.655   1.533   2.621  1.00  0.00     0.182 A 
ATOM     11  HN  UNL     1       4.375   1.344   4.225  1.00  0.00     0.168 HD
HETATM   12  N   UNL     1       5.907   1.899   1.364  1.00  0.00    -0.360 N 
HETATM   13  C   UNL     1       4.842   2.374   0.691  1.00  0.00     0.122 A 
ATOM     14  HN  UNL     1       6.834   1.825   0.945  1.00  0.00     0.166 HD
BRANCH   8  15
HETATM   15  N   UNL     1       2.172   2.157   3.248  1.00  0.00    -0.374 N 
HETATM   16  C   UNL     1       0.967   1.675   2.577  1.00  0.00     0.150 C 
HETATM   17  C   UNL     1       2.273   1.822   4.674  1.00  0.00     0.150 C 
ENDBRANCH   8  15
ENDBRANCH   1   7
BRANCH   4  18
HETATM   18  C   UNL     1       0.682   2.721  -2.713  1.00  0.00     0.086 C 
HETATM   19  C   UNL     1      -0.541   3.515  -3.200  1.00  0.00     0.025 C 
HETATM   20  C   UNL     1      -1.870   3.029  -2.639  1.00  0.00     0.003 C 
HETATM   21  C   UNL     1      -2.063   1.519  -2.783  1.00  0.00     0.014 C 
HETATM   22  C   UNL     1      -0.873   0.734  -2.225  1.00  0.00     0.095 C 
HETATM   23  C   UNL     1       0.422   1.210  -2.894  1.00  0.00     0.038 C 
BRANCH  22  24
HETATM   24  C   UNL     1      -1.058  -0.780  -2.382  1.00  0.00     0.391 C 
HETATM   25  F   UNL     1      -2.299  -1.099  -2.807  1.00  0.00    -0.171 F 
HETATM   26  F   UNL     1      -0.184  -1.321  -3.262  1.00  0.00    -0.171 F 
HETATM   27  F   UNL     1      -0.872  -1.398  -1.194  1.00  0.00    -0.171 F 
ENDBRANCH  22  24
ENDBRANCH   4  18
TORSDOF 4
