REMARK  5 active torsions:
REMARK  status: ('A' for Active; 'I' for Inactive)
REMARK    1  A    between atoms: C_8  and  N_9 
REMARK       I    between atoms: N_9  and  C_10 
REMARK       I    between atoms: C_10  and  N_12 
REMARK    2  A    between atoms: N_12  and  C_13 
REMARK    3  A    between atoms: C_13  and  C_14 
REMARK    4  A    between atoms: C_14  and  C_15 
REMARK    5  A    between atoms: C_15  and  N_16 
ROOT
HETATM    1  N   UNL     1       2.113  -2.307  -0.360  1.00  0.00    -0.308 N 
HETATM    2  C   UNL     1       0.743  -2.484  -0.298  1.00  0.00     0.320 C 
HETATM    3  O   UNL     1      -0.101  -1.594  -0.222  1.00  0.00    -0.247 OA
HETATM    4  N   UNL     1       0.342  -3.807  -0.338  1.00  0.00    -0.343 N 
HETATM    5  H   UNL     1       2.677  -3.131  -0.536  1.00  0.00     0.170 HD
HETATM    6  H   UNL     1       0.983  -4.492   0.032  1.00  0.00     0.164 HD
ENDROOT
BRANCH   1   7
HETATM    7  C   UNL     1       2.780  -1.040  -0.317  1.00  0.00     0.044 A 
HETATM    8  C   UNL     1       4.175  -0.953  -0.439  1.00  0.00    -0.020 A 
HETATM    9  C   UNL     1       5.094  -2.127  -0.597  1.00  0.00     0.052 C 
HETATM   10  C   UNL     1       4.749   0.324  -0.395  1.00  0.00     0.096 A 
HETATM   11  N   UNL     1       4.067   1.479  -0.245  1.00  0.00    -0.375 N 
HETATM   12  C   UNL     1       2.736   1.364  -0.138  1.00  0.00     0.090 A 
ATOM     13  HN  UNL     1       4.536   2.384  -0.215  1.00  0.00     0.164 HD
HETATM   14  C   UNL     1       2.066   0.154  -0.161  1.00  0.00     0.047 A 
ENDBRANCH   1   7
BRANCH   4  15
HETATM   15  C   UNL     1      -1.091  -4.035  -0.180  1.00  0.00     0.126 C 
BRANCH  15  16
HETATM   16  C   UNL     1      -1.558  -5.478  -0.281  1.00  0.00     0.039 C 
BRANCH  16  17
HETATM   17  C   UNL     1      -1.083  -6.341   0.889  1.00  0.00     0.127 C 
BRANCH  17  18
HETATM   18  N   UNL     1      -1.637  -7.682   0.812  1.00  0.00    -0.352 N 
HETATM   19  C   UNL     1      -2.917  -8.013   1.383  1.00  0.00     0.126 C 
HETATM   20  C   UNL     1      -3.234  -9.402   0.863  1.00  0.00     0.029 C 
HETATM   21  C   UNL     1      -2.296  -9.627  -0.315  1.00  0.00     0.104 C 
HETATM   22  C   UNL     1      -1.226  -8.584  -0.155  1.00  0.00     0.219 C 
HETATM   23  O   UNL     1      -0.214  -8.501  -0.834  1.00  0.00    -0.273 OA
ENDBRANCH  17  18
ENDBRANCH  16  17
ENDBRANCH  15  16
ENDBRANCH   4  15
TORSDOF 5
