REMARK  3 active torsions:
REMARK  status: ('A' for Active; 'I' for Inactive)
REMARK    1  A    between atoms: C_5  and  C_6 
REMARK    2  A    between atoms: C_6  and  C_7 
REMARK       I    between atoms: C_7  and  N_9 
REMARK    3  A    between atoms: N_9  and  C_10 
ROOT
HETATM    1  C   UNL     1       7.514   1.913   0.874  1.00  0.00     0.223 C 
HETATM    2  O   UNL     1       7.935   1.785   2.024  1.00  0.00    -0.273 OA
HETATM    3  N   UNL     1       8.182   1.433  -0.240  1.00  0.00    -0.356 N 
HETATM    4  H   UNL     1       7.913   1.834  -1.139  1.00  0.00     0.162 HD
ENDROOT
BRANCH   1   5
HETATM    5  C   UNL     1       6.162   2.532   0.592  1.00  0.00     0.160 C 
BRANCH   5   6
HETATM    6  C   UNL     1       6.259   3.765  -0.238  1.00  0.00     0.025 A 
HETATM    7  N   UNL     1       6.700   3.657  -1.553  1.00  0.00    -0.357 N 
HETATM    8  C   UNL     1       6.689   4.843  -2.125  1.00  0.00     0.047 A 
ATOM      9  HN  UNL     1       6.988   2.790  -2.006  1.00  0.00     0.166 HD
HETATM   10  C   UNL     1       7.102   5.103  -3.531  1.00  0.00     0.076 C 
HETATM   11  S   UNL     1       6.146   6.140  -1.140  1.00  0.00    -0.087 SA
HETATM   12  C   UNL     1       5.911   5.044   0.152  1.00  0.00     0.077 A 
ENDBRANCH   5   6
ENDBRANCH   1   5
BRANCH   3  13
HETATM   13  C   UNL     1       9.475   0.765  -0.108  1.00  0.00     0.084 C 
HETATM   14  C   UNL     1      10.612   1.792  -0.162  1.00  0.00     0.025 C 
HETATM   15  C   UNL     1      12.000   1.288   0.247  1.00  0.00     0.002 C 
HETATM   16  C   UNL     1      12.021   0.407   1.498  1.00  0.00     0.000 C 
HETATM   17  C   UNL     1      12.134  -1.098   1.228  1.00  0.00     0.000 C 
HETATM   18  C   UNL     1      10.964  -1.795   0.526  1.00  0.00     0.000 C 
HETATM   19  C   UNL     1      10.733  -1.367  -0.927  1.00  0.00     0.002 C 
HETATM   20  C   UNL     1       9.600  -0.356  -1.146  1.00  0.00     0.025 C 
ENDBRANCH   3  13
TORSDOF 3
