REMARK  5 active torsions:
REMARK  status: ('A' for Active; 'I' for Inactive)
REMARK    1  A    between atoms: C_2  and  C_3 
REMARK    2  A    between atoms: C_6  and  C_7 
REMARK    3  A    between atoms: C_7  and  C_8 
REMARK    4  A    between atoms: C_8  and  N_9 
REMARK       I    between atoms: N_9  and  C_10 
REMARK    5  A    between atoms: C_10  and  C_12 
ROOT
HETATM    1  C   UNL     1       2.956   0.948   1.494  1.00  0.00     0.022 A 
HETATM    2  N   UNL     1       3.469   0.132   2.489  1.00  0.00    -0.356 N 
ATOM      3  HN  UNL     1       3.603  -0.876   2.403  1.00  0.00     0.166 HD
HETATM    4  C   UNL     1       3.759   0.838   3.559  1.00  0.00     0.053 A 
HETATM    5  S   UNL     1       3.393   2.513   3.449  1.00  0.00    -0.080 SA
HETATM    6  C   UNL     1       2.830   2.282   1.846  1.00  0.00     0.003 A 
HETATM    7  C   UNL     1       2.313   3.423   1.044  1.00  0.00     0.058 C 
ENDROOT
BRANCH   4   8
HETATM    8  C   UNL     1       4.362   0.285   4.815  1.00  0.00     0.084 C 
BRANCH   8   9
HETATM    9  C   UNL     1       4.589  -1.224   4.717  1.00  0.00     0.129 C 
BRANCH   9  10
HETATM   10  N   UNL     1       5.182  -1.776   5.923  1.00  0.00    -0.360 N 
HETATM   11  C   UNL     1       6.541  -1.770   6.120  1.00  0.00     0.221 C 
HETATM   12  O   UNL     1       7.349  -1.288   5.339  1.00  0.00    -0.273 OA
HETATM   13  H   UNL     1       4.573  -2.143   6.641  1.00  0.00     0.162 HD
BRANCH  11  14
HETATM   14  C   UNL     1       6.977  -2.384   7.406  1.00  0.00     0.078 A 
HETATM   15  C   UNL     1       7.910  -1.619   8.315  1.00  0.00     0.015 A 
HETATM   16  C   UNL     1       8.407  -2.837   7.592  1.00  0.00     0.015 A 
ENDBRANCH  11  14
ENDBRANCH   9  10
ENDBRANCH   8   9
ENDBRANCH   4   8
BRANCH   1  17
HETATM   17  C   UNL     1       2.607   0.318   0.184  1.00  0.00     0.054 C 
HETATM   18  C   UNL     1       1.178  -0.198   0.156  1.00  0.00     0.011 C 
ENDBRANCH   1  17
TORSDOF 5
