REMARK  3 active torsions:
REMARK  status: ('A' for Active; 'I' for Inactive)
REMARK    1  A    between atoms: N_6  and  C_7 
REMARK    2  A    between atoms: C_7  and  C_9 
REMARK    3  A    between atoms: C_7  and  C_12 
REMARK       I    between atoms: C_9  and  N_11 
ROOT
HETATM    1  C   UNL     3       2.841  -0.290   1.430  1.00  0.00     0.259 C 
HETATM    2  C   UNL     3       2.373   0.787   2.445  1.00  0.00     0.065 C 
ENDROOT
BRANCH   1   3
HETATM    3  N   UNL     3       2.328   0.023   0.063  1.00  0.00     0.102 N 
HETATM    4  C   UNL     3       0.876   0.066  -0.151  1.00  0.00     0.308 C 
HETATM    5  H   UNL     3       2.723   0.943  -0.242  1.00  0.00     0.317 HD
ENDBRANCH   1   3
BRANCH   1   6
HETATM    6  C   UNL     3       2.346  -1.662   1.935  1.00  0.00     0.259 C 
HETATM    7  O   UNL     3       3.149  -2.566   2.132  1.00  0.00    -0.270 OA
HETATM    8  N   UNL     3       1.039  -1.903   2.214  1.00  0.00    -0.368 N 
HETATM    9  H   UNL     3       0.314  -1.182   2.114  1.00  0.00     0.159 HD
HETATM   10  H   UNL     3       0.745  -2.828   2.562  1.00  0.00     0.159 HD
ENDBRANCH   1   6
BRANCH   1  11
HETATM   11  C   UNL     3       4.388  -0.303   1.320  1.00  0.00    -0.008 A 
HETATM   12  C   UNL     3       5.231   0.555   2.066  1.00  0.00     0.027 A 
HETATM   13  C   UNL     3       6.618   0.489   1.916  1.00  0.00     0.088 A 
HETATM   14  N   UNL     3       7.173  -0.398   1.053  1.00  0.00    -0.375 N 
HETATM   15  C   UNL     3       6.406  -1.237   0.312  1.00  0.00     0.088 A 
ATOM     16  HN  UNL     3       8.188  -0.435   0.959  1.00  0.00     0.164 HD
HETATM   17  C   UNL     3       5.013  -1.203   0.427  1.00  0.00     0.027 A 
ENDBRANCH   1  11
TORSDOF 3
