REMARK  5 active torsions:
REMARK  status: ('A' for Active; 'I' for Inactive)
REMARK    1  A    between atoms: C_2  and  N_3 
REMARK    2  A    between atoms: C_2  and  C_12 
REMARK    3  A    between atoms: N_3  and  C_4 
REMARK    4  A    between atoms: C_4  and  C_5 
REMARK    5  A    between atoms: C_5  and  N_6 
REMARK       I    between atoms: C_12  and  N_14 
ROOT
HETATM    1  N   UNL     1       2.847  -1.027   1.025  1.00  0.00     0.098 N 
HETATM    2  H   UNL     1       3.864  -1.102   1.004  1.00  0.00     0.317 HD
ENDROOT
BRANCH   1   3
HETATM    3  C   UNL     1       2.443  -0.019   0.017  1.00  0.00     0.307 C 
HETATM    4  C   UNL     1       0.923   0.047  -0.166  1.00  0.00     0.053 C 
BRANCH   3   5
HETATM    5  C   UNL     1       3.119  -0.417  -1.324  1.00  0.00     0.252 C 
HETATM    6  O   UNL     1       2.478  -0.899  -2.260  1.00  0.00    -0.271 OA
HETATM    7  N   UNL     1       4.498  -0.278  -1.391  1.00  0.00    -0.350 N 
HETATM    8  C   UNL     1       5.225  -0.797  -2.538  1.00  0.00     0.126 C 
HETATM    9  C   UNL     1       5.307   0.676  -0.656  1.00  0.00     0.126 C 
HETATM   10  C   UNL     1       6.555  -0.054  -2.545  1.00  0.00     0.021 C 
HETATM   11  C   UNL     1       6.278   1.187  -1.707  1.00  0.00     0.021 C 
ENDBRANCH   3   5
ENDBRANCH   1   3
BRANCH   1  12
HETATM   12  C   UNL     1       2.393  -0.712   2.383  1.00  0.00     0.292 C 
BRANCH  12  13
HETATM   13  C   UNL     1       2.899  -1.766   3.374  1.00  0.00     0.178 C 
BRANCH  13  14
HETATM   14  N   UNL     1       2.391  -1.533   4.713  1.00  0.00    -0.302 N 
HETATM   15  C   UNL     1       1.573  -2.354   5.435  1.00  0.00     0.111 A 
HETATM   16  C   UNL     1       1.349  -1.710   6.629  1.00  0.00     0.037 A 
HETATM   17  C   UNL     1       2.085  -0.516   6.532  1.00  0.00     0.108 A 
HETATM   18  N   UNL     1       2.732  -0.407   5.371  1.00  0.00    -0.310 N 
ATOM     19  HN  UNL     1       3.340   0.349   5.056  1.00  0.00     0.186 HD
ENDBRANCH  13  14
ENDBRANCH  12  13
ENDBRANCH   1  12
TORSDOF 5
