REMARK  4 active torsions:
REMARK  status: ('A' for Active; 'I' for Inactive)
REMARK       I    between atoms: C_2  and  N_4 
REMARK    1  A    between atoms: C_7  and  N_10 
REMARK       I    between atoms: N_10  and  C_11 
REMARK       I    between atoms: C_11  and  N_13 
REMARK    2  A    between atoms: N_13  and  C_14 
REMARK    3  A    between atoms: C_14  and  C_15 
REMARK    4  A    between atoms: C_15  and  N_16 
ROOT
HETATM    1  N   UNL     1       5.515  -3.757  -1.530  1.00  0.00    -0.338 N 
HETATM    2  C   UNL     1       6.137  -4.942  -1.237  1.00  0.00     0.316 C 
HETATM    3  O   UNL     1       5.556  -5.997  -1.029  1.00  0.00    -0.247 OA
HETATM    4  N   UNL     1       7.506  -4.803  -1.239  1.00  0.00    -0.342 N 
HETATM    5  H   UNL     1       6.023  -2.928  -1.260  1.00  0.00     0.164 HD
HETATM    6  H   UNL     1       7.830  -4.090  -1.877  1.00  0.00     0.164 HD
ENDROOT
BRANCH   1   7
HETATM    7  C   UNL     1       4.056  -3.683  -1.593  1.00  0.00     0.089 C 
HETATM    8  C   UNL     1       3.596  -2.509  -2.458  1.00  0.00     0.045 C 
HETATM    9  C   UNL     1       3.781  -1.168  -1.759  1.00  0.00     0.127 C 
HETATM   10  N   UNL     1       3.160  -1.171  -0.438  1.00  0.00    -0.352 N 
HETATM   11  C   UNL     1       2.594   0.016   0.017  1.00  0.00     0.215 C 
HETATM   12  C   UNL     1       3.572  -2.257   0.454  1.00  0.00     0.127 C 
HETATM   13  C   UNL     1       1.827  -0.043   1.313  1.00  0.00     0.117 C 
HETATM   14  O   UNL     1       2.646   1.065  -0.626  1.00  0.00    -0.274 OA
HETATM   15  C   UNL     1       3.413  -3.623  -0.203  1.00  0.00     0.045 C 
ENDBRANCH   1   7
BRANCH   4  16
HETATM   16  C   UNL     1       8.311  -6.011  -1.124  1.00  0.00     0.144 C 
BRANCH  16  17
HETATM   17  C   UNL     1       9.809  -5.734  -1.123  1.00  0.00     0.149 C 
BRANCH  17  18
HETATM   18  N   UNL     1      10.581  -6.950  -0.988  1.00  0.00    -0.350 N 
HETATM   19  C   UNL     1      11.019  -7.751  -2.003  1.00  0.00     0.108 A 
HETATM   20  C   UNL     1      11.690  -8.776  -1.378  1.00  0.00     0.106 A 
HETATM   21  N   UNL     1      11.676  -8.608  -0.017  1.00  0.00    -0.361 N 
HETATM   22  C   UNL     1      11.000  -7.500   0.189  1.00  0.00     0.182 A 
ATOM     23  HN  UNL     1      12.100  -9.214   0.686  1.00  0.00     0.166 HD
ENDBRANCH  17  18
ENDBRANCH  16  17
ENDBRANCH   4  16
TORSDOF 4
