REMARK  5 active torsions:
REMARK  status: ('A' for Active; 'I' for Inactive)
REMARK    1  A    between atoms: S_2  and  C_3 
REMARK    2  A    between atoms: C_3  and  C_5 
REMARK       I    between atoms: C_5  and  N_7 
REMARK    3  A    between atoms: N_7  and  C_8 
REMARK    4  A    between atoms: C_8  and  C_9 
REMARK    5  A    between atoms: C_12  and  N_16 
ROOT
HETATM    1  C   UNL     1       7.528  -3.747   2.429  1.00  0.00    -0.025 A 
HETATM    2  C   UNL     1       8.552  -3.626   3.364  1.00  0.00     0.014 A 
HETATM    3  C   UNL     1       9.017  -4.764   4.023  1.00  0.00     0.049 A 
HETATM    4  C   UNL     1       8.464  -6.018   3.752  1.00  0.00     0.103 A 
HETATM    5  N   UNL     1       7.455  -6.138   2.864  1.00  0.00    -0.352 N 
ATOM      6  HN  UNL     1       7.038  -7.048   2.667  1.00  0.00     0.166 HD
HETATM    7  C   UNL     1       7.007  -5.019   2.238  1.00  0.00     0.098 A 
ENDROOT
BRANCH   1   8
HETATM    8  C   UNL     1       7.059  -2.566   1.636  1.00  0.00     0.162 C 
BRANCH   8   9
HETATM    9  N   UNL     1       6.035  -1.803   2.306  1.00  0.00    -0.356 N 
HETATM   10  C   UNL     1       5.545  -0.655   1.714  1.00  0.00     0.231 C 
HETATM   11  O   UNL     1       5.904  -0.293   0.595  1.00  0.00    -0.272 OA
HETATM   12  H   UNL     1       5.911  -1.905   3.310  1.00  0.00     0.162 HD
BRANCH  10  13
HETATM   13  C   UNL     1       4.491   0.096   2.533  1.00  0.00     0.134 C 
HETATM   14  C   UNL     1       3.906   1.280   1.768  1.00  0.00     0.031 C 
BRANCH  13  15
HETATM   15  S   UNL     1       5.167   0.595   4.171  1.00  0.00    -0.160 SA
HETATM   16  C   UNL     1       6.480   1.739   3.663  1.00  0.00     0.090 C 
ENDBRANCH  13  15
ENDBRANCH  10  13
ENDBRANCH   8   9
ENDBRANCH   1   8
BRANCH   4  17
HETATM   17  N   UNL     1       9.016  -7.146   4.331  1.00  0.00    -0.363 N 
HETATM   18  C   UNL     1       8.859  -8.448   3.671  1.00  0.00     0.150 C 
HETATM   19  C   UNL     1       7.905  -9.363   4.444  1.00  0.00     0.188 C 
HETATM   20  O   UNL     1       8.299  -9.483   5.822  1.00  0.00    -0.383 OA
HETATM   21  C   UNL     1       8.256  -8.193   6.460  1.00  0.00     0.135 C 
HETATM   22  C   UNL     1       8.630  -8.397   7.923  1.00  0.00     0.041 C 
HETATM   23  C   UNL     1       9.225  -7.196   5.784  1.00  0.00     0.155 C 
ENDBRANCH   4  17
TORSDOF 5
