REMARK  6 active torsions:
REMARK  status: ('A' for Active; 'I' for Inactive)
REMARK    1  A    between atoms: C_7  and  O_8 
REMARK    2  A    between atoms: O_8  and  C_9 
REMARK    3  A    between atoms: C_9  and  C_10 
REMARK    4  A    between atoms: C_10  and  O_11 
REMARK    5  A    between atoms: C_10  and  C_12 
REMARK    6  A    between atoms: C_12  and  N_13 
ROOT
HETATM    1  N   UNL     1       5.806  -5.157   2.350  1.00  0.00    -0.254 N 
HETATM    2  N   UNL     1       5.064  -6.311   2.406  1.00  0.00    -0.300 N 
ATOM      3  HN  UNL     1       5.058  -6.967   1.625  1.00  0.00     0.187 HD
HETATM    4  C   UNL     1       4.370  -6.547   3.477  1.00  0.00     0.029 C 
HETATM    5  C   UNL     1       3.632  -7.868   3.526  1.00  0.00     0.070 C 
HETATM    6  C   UNL     1       4.258  -5.614   4.632  1.00  0.00    -0.012 C 
HETATM    7  C   UNL     1       3.343  -5.911   5.785  1.00  0.00     0.052 C 
HETATM    8  C   UNL     1       5.017  -4.507   4.557  1.00  0.00     0.121 C 
HETATM    9  C   UNL     1       4.964  -3.500   5.562  1.00  0.00     0.105 C 
HETATM   10  N   UNL     1       4.851  -2.718   6.412  1.00  0.00    -0.191 NA
HETATM   11  C   UNL     1       5.922  -4.267   3.407  1.00  0.00     0.283 C 
HETATM   12  O   UNL     1       6.698  -3.313   3.416  1.00  0.00    -0.265 OA
ENDROOT
BRANCH   1  13
HETATM   13  C   UNL     1       6.543  -4.912   1.105  1.00  0.00     0.186 C 
BRANCH  13  14
HETATM   14  C   UNL     1       5.632  -4.787  -0.126  1.00  0.00     0.162 C 
BRANCH  14  15
HETATM   15  C   UNL     1       4.534  -3.734   0.065  1.00  0.00     0.209 C 
BRANCH  15  16
HETATM   16  O   UNL     1       5.098  -2.447   0.259  1.00  0.00    -0.347 OA
BRANCH  16  17
HETATM   17  C   UNL     1       4.299  -1.348   0.461  1.00  0.00     0.081 A 
HETATM   18  C   UNL     1       5.077  -0.165   0.595  1.00  0.00    -0.028 A 
HETATM   19  C   UNL     1       4.461   1.082   0.759  1.00  0.00     0.010 A 
HETATM   20  C   UNL     1       6.587  -0.201   0.544  1.00  0.00     0.051 C 
HETATM   21  C   UNL     1       3.079   1.178   0.787  1.00  0.00     0.008 A 
HETATM   22  C   UNL     1       2.287   0.031   0.664  1.00  0.00    -0.053 A 
HETATM   23  C   UNL     1       0.786   0.212   0.674  1.00  0.00     0.049 C 
HETATM   24  C   UNL     1       2.880  -1.262   0.530  1.00  0.00    -0.022 A 
HETATM   25  C   UNL     1       1.891  -2.399   0.463  1.00  0.00     0.052 C 
ENDBRANCH  16  17
ENDBRANCH  15  16
ENDBRANCH  14  15
BRANCH  14  26
HETATM   26  O   UNL     1       6.411  -4.472  -1.288  1.00  0.00    -0.392 OA
HETATM   27  H   UNL     1       6.573  -3.509  -1.261  1.00  0.00     0.210 HD
ENDBRANCH  14  26
ENDBRANCH  13  14
ENDBRANCH   1  13
TORSDOF 6
