REMARK  5 active torsions:
REMARK  status: ('A' for Active; 'I' for Inactive)
REMARK    1  A    between atoms: N_7  and  C_8 
REMARK    2  A    between atoms: C_8  and  C_9 
REMARK       I    between atoms: C_9  and  N_11 
REMARK    3  A    between atoms: N_11  and  C_12 
REMARK    4  A    between atoms: C_12  and  C_13 
REMARK    5  A    between atoms: C_13  and  N_16 
ROOT
HETATM    1  C   UNL     1       4.125  -3.704  -0.369  1.00  0.00     0.236 C 
HETATM    2  O   UNL     1       2.971  -3.470  -0.725  1.00  0.00    -0.272 OA
HETATM    3  N   UNL     1       4.697  -4.960  -0.443  1.00  0.00    -0.357 N 
HETATM    4  H   UNL     1       5.700  -5.051  -0.311  1.00  0.00     0.162 HD
ENDROOT
BRANCH   1   5
HETATM    5  C   UNL     1       5.032  -2.604   0.185  1.00  0.00     0.235 C 
BRANCH   5   6
HETATM    6  N   UNL     1       5.642  -1.799  -0.866  1.00  0.00    -0.301 N 
HETATM    7  C   UNL     1       4.969  -0.702  -1.351  1.00  0.00     0.102 A 
HETATM    8  C   UNL     1       5.503   0.097  -2.274  1.00  0.00     0.092 A 
HETATM    9  C   UNL     1       6.831  -0.219  -2.824  1.00  0.00     0.252 A 
HETATM   10  N   UNL     1       7.418  -1.382  -2.359  1.00  0.00    -0.271 N 
HETATM   11  O   UNL     1       7.331   0.550  -3.642  1.00  0.00    -0.268 OA
HETATM   12  C   UNL     1       8.685  -1.789  -2.934  1.00  0.00     0.164 C 
HETATM   13  C   UNL     1       6.891  -2.177  -1.345  1.00  0.00     0.331 A 
HETATM   14  O   UNL     1       7.486  -3.158  -0.892  1.00  0.00    -0.246 OA
ENDBRANCH   5   6
ENDBRANCH   1   5
BRANCH   3  15
HETATM   15  C   UNL     1       3.872  -6.118  -0.761  1.00  0.00     0.152 C 
BRANCH  15  16
HETATM   16  C   UNL     1       4.574  -7.531  -0.787  1.00  0.00     0.036 C 
HETATM   17  C   UNL     1       5.628  -7.488  -1.923  1.00  0.00     0.039 C 
HETATM   18  C   UNL     1       5.331  -7.758   0.535  1.00  0.00     0.039 C 
BRANCH  16  19
HETATM   19  N   UNL     1       3.534  -8.567  -1.073  1.00  0.00    -0.399 N 
HETATM   20  C   UNL     1       2.450  -8.747  -0.081  1.00  0.00     0.144 C 
HETATM   21  C   UNL     1       2.728  -9.803   1.004  1.00  0.00     0.187 C 
HETATM   22  O   UNL     1       3.072 -11.067   0.432  1.00  0.00    -0.388 OA
HETATM   23  C   UNL     1       4.201 -10.939  -0.439  1.00  0.00     0.187 C 
HETATM   24  C   UNL     1       3.943  -9.904  -1.547  1.00  0.00     0.144 C 
ENDBRANCH  16  19
ENDBRANCH  15  16
ENDBRANCH   3  15
TORSDOF 5
