REMARK  5 active torsions:
REMARK  status: ('A' for Active; 'I' for Inactive)
REMARK    1  A    between atoms: C_2  and  N_3 
REMARK    2  A    between atoms: N_3  and  C_4 
REMARK       I    between atoms: N_3  and  C_6 
REMARK    3  A    between atoms: C_6  and  C_8 
REMARK    4  A    between atoms: C_8  and  C_9 
REMARK    5  A    between atoms: C_12  and  N_15 
ROOT
HETATM    1  C   UNL     1       6.565   1.734  -2.360  1.00  0.00     0.026 A 
HETATM    2  C   UNL     1       7.225   2.764  -1.719  1.00  0.00     0.078 A 
HETATM    3  S   UNL     1       8.907   2.633  -1.979  1.00  0.00    -0.064 SA
HETATM    4  C   UNL     1       8.658   1.234  -2.929  1.00  0.00     0.155 A 
HETATM    5  N   UNL     1       7.403   0.837  -3.020  1.00  0.00    -0.339 N 
ATOM      6  HN  UNL     1       7.091  -0.005  -3.504  1.00  0.00     0.168 HD
ENDROOT
BRANCH   1   7
HETATM    7  C   UNL     1       5.083   1.567  -2.447  1.00  0.00     0.160 C 
BRANCH   7   8
HETATM    8  C   UNL     1       4.523   0.821  -1.243  1.00  0.00     0.225 C 
HETATM    9  N   UNL     1       4.321  -0.561  -1.343  1.00  0.00    -0.353 N 
HETATM   10  O   UNL     1       4.263   1.447  -0.210  1.00  0.00    -0.273 OA
BRANCH   9  11
HETATM   11  C   UNL     1       3.881  -1.261  -0.134  1.00  0.00     0.121 C 
HETATM   12  C   UNL     1       2.367  -1.277   0.033  1.00  0.00     0.026 C 
ENDBRANCH   9  11
BRANCH   9  13
HETATM   13  C   UNL     1       4.650  -1.300  -2.567  1.00  0.00     0.121 C 
HETATM   14  C   UNL     1       4.355  -2.790  -2.622  1.00  0.00     0.026 C 
ENDBRANCH   9  13
ENDBRANCH   7   8
ENDBRANCH   1   7
BRANCH   4  15
HETATM   15  N   UNL     1       9.714   0.580  -3.531  1.00  0.00    -0.278 N 
HETATM   16  C   UNL     1       9.603  -0.711  -4.175  1.00  0.00     0.155 C 
HETATM   17  C   UNL     1      10.916  -0.879  -4.924  1.00  0.00     0.145 C 
HETATM   18  N   UNL     1      11.751   0.162  -4.404  1.00  0.00    -0.341 N 
HETATM   19  C   UNL     1      11.010   1.088  -3.670  1.00  0.00     0.324 C 
HETATM   20  H   UNL     1      12.646   0.452  -4.780  1.00  0.00     0.164 HD
HETATM   21  O   UNL     1      11.501   2.145  -3.316  1.00  0.00    -0.247 OA
ENDBRANCH   4  15
TORSDOF 5
