REMARK  4 active torsions:
REMARK  status: ('A' for Active; 'I' for Inactive)
REMARK       I    between atoms: C_2  and  N_3 
REMARK       I    between atoms: C_2  and  N_7 
REMARK    1  A    between atoms: N_3  and  C_4 
REMARK    2  A    between atoms: N_7  and  C_8 
REMARK    3  A    between atoms: C_11  and  N_12 
REMARK       I    between atoms: N_12  and  C_13 
REMARK    4  A    between atoms: C_13  and  C_15 
ROOT
HETATM    1  C   UNL     1       4.526  -0.927  -0.644  1.00  0.00     0.051 A 
HETATM    2  C   UNL     1       5.257   0.245  -0.806  1.00  0.00     0.035 A 
HETATM    3  C   UNL     1       6.645   0.187  -0.981  1.00  0.00     0.051 A 
HETATM    4  C   UNL     1       7.279  -1.049  -1.009  1.00  0.00     0.107 A 
HETATM    5  N   UNL     1       6.591  -2.192  -0.863  1.00  0.00    -0.350 N 
ATOM      6  HN  UNL     1       7.064  -3.095  -0.887  1.00  0.00     0.166 HD
HETATM    7  C   UNL     1       5.251  -2.113  -0.683  1.00  0.00     0.119 A 
ENDROOT
BRANCH   1   8
HETATM    8  N   UNL     1       3.128  -0.981  -0.448  1.00  0.00    -0.308 N 
HETATM    9  C   UNL     1       2.265   0.090  -0.342  1.00  0.00     0.321 C 
HETATM   10  O   UNL     1       2.579   1.274  -0.369  1.00  0.00    -0.247 OA
HETATM   11  N   UNL     1       0.952  -0.323  -0.180  1.00  0.00    -0.338 N 
HETATM   12  H   UNL     1       0.713  -1.246  -0.511  1.00  0.00     0.164 HD
HETATM   13  H   UNL     1       2.728  -1.895  -0.295  1.00  0.00     0.170 HD
BRANCH  11  14
HETATM   14  C   UNL     1      -0.108   0.639  -0.120  1.00  0.00     0.086 A 
HETATM   15  C   UNL     1      -0.512   1.250   1.193  1.00  0.00     0.027 A 
HETATM   16  C   UNL     1      -1.438   0.300   0.492  1.00  0.00     0.027 A 
ENDBRANCH  11  14
ENDBRANCH   1   8
BRANCH   4  17
HETATM   17  N   UNL     1       8.668  -1.062  -1.199  1.00  0.00    -0.313 N 
HETATM   18  C   UNL     1       9.443  -2.196  -1.283  1.00  0.00     0.227 C 
HETATM   19  O   UNL     1       9.073  -3.358  -1.208  1.00  0.00    -0.273 OA
HETATM   20  H   UNL     1       9.123  -0.168  -1.271  1.00  0.00     0.170 HD
BRANCH  18  21
HETATM   21  C   UNL     1      10.909  -1.970  -1.490  1.00  0.00     0.078 A 
HETATM   22  C   UNL     1      11.717  -1.322  -0.388  1.00  0.00     0.015 A 
HETATM   23  C   UNL     1      11.602  -0.650  -1.726  1.00  0.00     0.015 A 
ENDBRANCH  18  21
ENDBRANCH   4  17
TORSDOF 4
