REMARK  4 active torsions:
REMARK  status: ('A' for Active; 'I' for Inactive)
REMARK    1  A    between atoms: C_2  and  C_4 
REMARK       I    between atoms: C_4  and  N_6 
REMARK    2  A    between atoms: N_6  and  C_7 
REMARK    3  A    between atoms: C_7  and  C_8 
REMARK    4  A    between atoms: C_13  and  N_15 
ROOT
HETATM    1  C   UNL     1       6.519  -2.256  -2.050  1.00  0.00    -0.036 A 
HETATM    2  C   UNL     1       7.298  -1.104  -2.101  1.00  0.00     0.026 A 
HETATM    3  C   UNL     1       8.661  -1.248  -2.295  1.00  0.00     0.090 A 
HETATM    4  N   UNL     1       9.287  -2.438  -2.459  1.00  0.00    -0.352 N 
ATOM      5  HN  UNL     1      10.289  -2.487  -2.643  1.00  0.00     0.166 HD
HETATM    6  C   UNL     1       8.539  -3.552  -2.371  1.00  0.00     0.103 A 
HETATM    7  C   UNL     1       7.168  -3.491  -2.125  1.00  0.00     0.057 A 
ENDROOT
BRANCH   1   8
HETATM    8  C   UNL     1       5.021  -2.202  -2.031  1.00  0.00     0.161 C 
BRANCH   8   9
HETATM    9  N   UNL     1       4.471  -2.083  -0.704  1.00  0.00    -0.357 N 
HETATM   10  C   UNL     1       3.103  -2.070  -0.545  1.00  0.00     0.221 C 
HETATM   11  O   UNL     1       2.335  -2.142  -1.501  1.00  0.00    -0.273 OA
HETATM   12  H   UNL     1       5.092  -2.064   0.093  1.00  0.00     0.162 HD
BRANCH  10  13
HETATM   13  C   UNL     1       2.620  -1.914   0.895  1.00  0.00     0.070 C 
HETATM   14  C   UNL     1       1.091  -1.833   0.941  1.00  0.00     0.019 C 
HETATM   15  C   UNL     1       3.105  -3.059   1.780  1.00  0.00     0.019 C 
ENDBRANCH  10  13
ENDBRANCH   8   9
ENDBRANCH   1   8
BRANCH   6  16
HETATM   16  N   UNL     1       9.065  -4.788  -2.702  1.00  0.00    -0.363 N 
HETATM   17  C   UNL     1      10.152  -4.836  -3.680  1.00  0.00     0.150 C 
HETATM   18  C   UNL     1      10.103  -6.240  -4.316  1.00  0.00     0.187 C 
HETATM   19  O   UNL     1      10.241  -7.277  -3.321  1.00  0.00    -0.388 OA
HETATM   20  C   UNL     1       9.210  -7.170  -2.318  1.00  0.00     0.187 C 
HETATM   21  C   UNL     1       9.216  -5.787  -1.642  1.00  0.00     0.150 C 
ENDBRANCH   6  16
TORSDOF 4
