REMARK  4 active torsions:
REMARK  status: ('A' for Active; 'I' for Inactive)
REMARK    1  A    between atoms: C_2  and  C_3 
REMARK       I    between atoms: C_2  and  N_11 
REMARK    2  A    between atoms: C_3  and  N_4 
REMARK    3  A    between atoms: N_11  and  C_12 
REMARK    4  A    between atoms: C_12  and  C_13 
ROOT
HETATM    1  O   UNL     1       2.820   1.969   0.102  1.00  0.00    -0.272 OA
HETATM    2  C   UNL     1       2.305   0.990  -0.438  1.00  0.00     0.237 C 
HETATM    3  N   UNL     1       3.040   0.051  -1.127  1.00  0.00    -0.357 N 
HETATM    4  H   UNL     1       2.571  -0.638  -1.712  1.00  0.00     0.162 HD
ENDROOT
BRANCH   2   5
HETATM    5  C   UNL     1       0.791   0.811  -0.499  1.00  0.00     0.255 C 
BRANCH   5   6
HETATM    6  N   UNL     1       0.386  -0.489   0.003  1.00  0.00    -0.243 N 
HETATM    7  N   UNL     1       0.086  -0.649   1.335  1.00  0.00    -0.299 N 
HETATM    8  C   UNL     1      -0.219  -1.886   1.557  1.00  0.00     0.162 A 
ATOM      9  HN  UNL     1       0.102   0.091   2.037  1.00  0.00     0.187 HD
HETATM   10  S   UNL     1      -0.182  -2.962   0.187  1.00  0.00    -0.021 SA
HETATM   11  C   UNL     1       0.328  -1.609  -0.792  1.00  0.00     0.306 A 
HETATM   12  O   UNL     1       0.608  -1.690  -1.978  1.00  0.00    -0.258 OA
ENDBRANCH   5   6
ENDBRANCH   2   5
BRANCH   3  13
HETATM   13  C   UNL     1       4.491   0.093  -1.212  1.00  0.00     0.154 C 
BRANCH  13  14
HETATM   14  C   UNL     1       4.995   0.274  -2.646  1.00  0.00     0.139 C 
HETATM   15  C   UNL     1       4.590   1.574  -3.324  1.00  0.00     0.035 C 
HETATM   16  C   UNL     1       4.336   1.190  -4.767  1.00  0.00     0.029 C 
HETATM   17  C   UNL     1       4.591  -0.301  -4.830  1.00  0.00     0.168 C 
HETATM   18  O   UNL     1       4.491  -0.779  -3.487  1.00  0.00    -0.384 OA
ENDBRANCH  13  14
ENDBRANCH   3  13
TORSDOF 4
