REMARK  4 active torsions:
REMARK  status: ('A' for Active; 'I' for Inactive)
REMARK    1  A    between atoms: C_2  and  C_3 
REMARK    2  A    between atoms: C_3  and  C_4 
REMARK       I    between atoms: N_10  and  C_11 
REMARK       I    between atoms: C_11  and  N_13 
REMARK    3  A    between atoms: N_13  and  C_14 
REMARK    4  A    between atoms: C_14  and  C_15 
ROOT
HETATM    1  C   UNL     1       8.259  -0.711   5.076  1.00  0.00     0.069 A 
HETATM    2  N   UNL     1       9.508  -0.866   4.683  1.00  0.00    -0.296 N 
ATOM      3  HN  UNL     1      10.230  -1.318   5.244  1.00  0.00     0.187 HD
HETATM    4  N   UNL     1       9.721  -0.348   3.431  1.00  0.00    -0.279 N 
ATOM      5  HN  UNL     1      10.625  -0.349   2.959  1.00  0.00     0.189 HD
HETATM    6  C   UNL     1       8.622   0.150   2.913  1.00  0.00     0.169 A 
HETATM    7  N   UNL     1       8.478   0.773   1.707  1.00  0.00    -0.288 N 
HETATM    8  C   UNL     1       9.514   1.124   0.889  1.00  0.00     0.322 C 
HETATM    9  O   UNL     1       9.287   1.650  -0.197  1.00  0.00    -0.247 OA
HETATM   10  N   UNL     1      10.774   0.910   1.365  1.00  0.00    -0.342 N 
HETATM   11  S   UNL     1       7.236   0.010   3.889  1.00  0.00    -0.038 SA
HETATM   12  H   UNL     1       7.552   1.031   1.394  1.00  0.00     0.172 HD
HETATM   13  H   UNL     1      10.855   0.308   2.179  1.00  0.00     0.164 HD
ENDROOT
BRANCH  10  14
HETATM   14  C   UNL     1      11.975   1.253   0.637  1.00  0.00     0.131 C 
BRANCH  14  15
HETATM   15  C   UNL     1      13.259   0.952   1.406  1.00  0.00     0.029 C 
HETATM   16  C   UNL     1      13.471  -0.507   1.780  1.00  0.00     0.034 C 
HETATM   17  C   UNL     1      14.191  -0.458   3.118  1.00  0.00     0.168 C 
HETATM   18  O   UNL     1      14.375   0.921   3.460  1.00  0.00    -0.391 OA
HETATM   19  C   UNL     1      13.392   1.670   2.736  1.00  0.00     0.173 C 
ENDBRANCH  14  15
ENDBRANCH  10  14
BRANCH   1  20
HETATM   20  C   UNL     1       7.755  -1.118   6.422  1.00  0.00     0.066 C 
BRANCH  20  21
HETATM   21  C   UNL     1       8.619  -0.510   7.532  1.00  0.00     0.002 C 
HETATM   22  C   UNL     1       8.166  -0.963   8.909  1.00  0.00     0.005 C 
ENDBRANCH  20  21
ENDBRANCH   1  20
TORSDOF 4
