REMARK  4 active torsions:
REMARK  status: ('A' for Active; 'I' for Inactive)
REMARK    1  A    between atoms: C_2  and  C_3 
REMARK    2  A    between atoms: N_8  and  C_9 
REMARK    3  A    between atoms: C_9  and  C_10 
REMARK       I    between atoms: C_10  and  N_12 
REMARK    4  A    between atoms: N_12  and  C_13 
ROOT
HETATM    1  C   UNL     1       2.892   4.884  -0.521  1.00  0.00     0.237 C 
HETATM    2  O   UNL     1       3.725   5.482   0.159  1.00  0.00    -0.272 OA
HETATM    3  N   UNL     1       1.753   4.313   0.020  1.00  0.00    -0.355 N 
HETATM    4  H   UNL     1       0.994   4.070  -0.616  1.00  0.00     0.162 HD
ENDROOT
BRANCH   1   5
HETATM    5  C   UNL     1       3.144   4.622  -1.992  1.00  0.00     0.250 C 
BRANCH   5   6
HETATM    6  N   UNL     1       2.078   5.089  -2.844  1.00  0.00    -0.256 N 
HETATM    7  C   UNL     1       2.094   5.971  -3.895  1.00  0.00     0.109 A 
HETATM    8  N   UNL     1       0.881   5.992  -4.412  1.00  0.00    -0.274 N 
HETATM    9  N   UNL     1       0.133   5.097  -3.692  1.00  0.00    -0.007 NA
ATOM     10  HN  UNL     1       0.562   6.563  -5.195  1.00  0.00     0.185 HD
HETATM   11  N   UNL     1       0.861   4.523  -2.750  1.00  0.00    -0.005 NA
BRANCH   7  12
HETATM   12  C   UNL     1       3.255   6.765  -4.380  1.00  0.00     0.074 C 
HETATM   13  C   UNL     1       4.007   6.052  -5.494  1.00  0.00     0.013 C 
ENDBRANCH   7  12
ENDBRANCH   5   6
ENDBRANCH   1   5
BRANCH   3  14
HETATM   14  C   UNL     1       1.453   4.400   1.454  1.00  0.00     0.084 C 
HETATM   15  C   UNL     1       0.654   3.164   1.894  1.00  0.00     0.025 C 
HETATM   16  C   UNL     1       0.536   2.910   3.404  1.00  0.00     0.002 C 
HETATM   17  C   UNL     1       1.794   3.201   4.225  1.00  0.00     0.000 C 
HETATM   18  C   UNL     1       1.783   4.543   4.964  1.00  0.00     0.000 C 
HETATM   19  C   UNL     1       1.818   5.824   4.124  1.00  0.00     0.000 C 
HETATM   20  C   UNL     1       0.579   6.066   3.259  1.00  0.00     0.002 C 
HETATM   21  C   UNL     1       0.756   5.729   1.775  1.00  0.00     0.025 C 
ENDBRANCH   3  14
TORSDOF 4
