REMARK  6 active torsions:
REMARK  status: ('A' for Active; 'I' for Inactive)
REMARK    1  A    between atoms: O_2  and  C_3 
REMARK    2  A    between atoms: C_3  and  C_4 
REMARK    3  A    between atoms: C_4  and  N_5 
REMARK    4  A    between atoms: C_6  and  N_18 
REMARK    5  A    between atoms: N_18  and  C_20 
REMARK    6  A    between atoms: C_20  and  C_21 
ROOT
HETATM    1  N   UNL     1       4.785   2.323   1.474  1.00  0.00    -0.172 N 
HETATM    2  C   UNL     1       4.437   3.635   1.149  1.00  0.00     0.684 A 
HETATM    3  N   UNL     1       4.976   4.470   2.024  1.00  0.00    -0.174 N 
ATOM      4  HN  UNL     1       4.882   5.486   2.037  1.00  0.00     0.186 HD
HETATM    5  C   UNL     1       5.677   3.708   2.898  1.00  0.00     0.160 A 
HETATM    6  N   UNL     1       6.335   4.151   4.026  1.00  0.00    -0.287 N 
HETATM    7  C   UNL     1       6.328   5.542   4.427  1.00  0.00     0.163 C 
HETATM    8  C   UNL     1       6.964   3.223   4.847  1.00  0.00     0.330 A 
HETATM    9  O   UNL     1       7.547   3.514   5.890  1.00  0.00    -0.246 OA
HETATM   10  N   UNL     1       6.919   1.900   4.448  1.00  0.00    -0.273 N 
HETATM   11  C   UNL     1       6.322   1.395   3.314  1.00  0.00     0.280 A 
HETATM   12  O   UNL     1       6.401   0.205   3.023  1.00  0.00    -0.265 OA
HETATM   13  C   UNL     1       5.639   2.389   2.555  1.00  0.00     0.164 A 
HETATM   14  H   UNL     1       7.392   1.244   5.047  1.00  0.00     0.173 HD
ENDROOT
BRANCH   2  15
HETATM   15  N   UNL     1       3.544   4.004   0.174  1.00  0.00    -0.217 N 
HETATM   16  C   UNL     1       2.896   5.297   0.412  1.00  0.00     0.169 C 
BRANCH  15  17
HETATM   17  C   UNL     1       3.738   3.581  -1.226  1.00  0.00     0.179 C 
BRANCH  17  18
HETATM   18  C   UNL     1       3.312   4.571  -2.302  1.00  0.00    -0.040 A 
HETATM   19  C   UNL     1       4.231   5.477  -2.853  1.00  0.00     0.009 A 
HETATM   20  C   UNL     1       3.841   6.373  -3.855  1.00  0.00     0.001 A 
HETATM   21  C   UNL     1       2.526   6.381  -4.318  1.00  0.00     0.000 A 
HETATM   22  C   UNL     1       1.598   5.491  -3.780  1.00  0.00     0.001 A 
HETATM   23  C   UNL     1       1.988   4.592  -2.782  1.00  0.00     0.009 A 
ENDBRANCH  17  18
ENDBRANCH  15  17
ENDBRANCH   2  15
BRANCH   1  24
HETATM   24  C   UNL     1       4.267   1.087   0.912  1.00  0.00     0.174 C 
BRANCH  24  25
HETATM   25  C   UNL     1       3.481   0.208   1.888  1.00  0.00     0.187 C 
BRANCH  25  26
HETATM   26  O   UNL     1       2.326   0.898   2.367  1.00  0.00    -0.394 OA
HETATM   27  C   UNL     1       1.692   0.179   3.418  1.00  0.00     0.201 C 
ENDBRANCH  25  26
ENDBRANCH  24  25
ENDBRANCH   1  24
TORSDOF 6
