REMARK  4 active torsions:
REMARK  status: ('A' for Active; 'I' for Inactive)
REMARK    1  A    between atoms: C_2  and  C_3 
REMARK    2  A    between atoms: C_3  and  N_4 
REMARK       I    between atoms: N_4  and  C_5 
REMARK       I    between atoms: C_5  and  N_7 
REMARK    3  A    between atoms: N_7  and  C_8 
REMARK    4  A    between atoms: C_11  and  N_15 
ROOT
HETATM    1  C   UNL     1       7.838  -2.623  -1.663  1.00  0.00     0.051 A 
HETATM    2  C   UNL     1       8.981  -2.156  -2.294  1.00  0.00     0.035 A 
HETATM    3  C   UNL     1       9.825  -3.067  -2.933  1.00  0.00     0.051 A 
HETATM    4  C   UNL     1       9.549  -4.437  -2.905  1.00  0.00     0.103 A 
HETATM    5  N   UNL     1       8.479  -4.904  -2.230  1.00  0.00    -0.350 N 
ATOM      6  HN  UNL     1       8.296  -5.905  -2.165  1.00  0.00     0.166 HD
HETATM    7  C   UNL     1       7.650  -4.001  -1.637  1.00  0.00     0.119 A 
ENDROOT
BRANCH   1   8
HETATM    8  N   UNL     1       6.912  -1.683  -1.154  1.00  0.00    -0.308 N 
HETATM    9  C   UNL     1       5.551  -1.852  -1.317  1.00  0.00     0.321 C 
HETATM   10  N   UNL     1       4.855  -0.709  -0.980  1.00  0.00    -0.339 N 
HETATM   11  O   UNL     1       5.013  -2.838  -1.801  1.00  0.00    -0.247 OA
HETATM   12  H   UNL     1       5.148  -0.287  -0.108  1.00  0.00     0.164 HD
HETATM   13  H   UNL     1       7.201  -0.715  -1.158  1.00  0.00     0.170 HD
BRANCH  10  14
HETATM   14  C   UNL     1       3.437  -0.689  -1.255  1.00  0.00     0.150 C 
BRANCH  14  15
HETATM   15  C   UNL     1       2.954   0.720  -1.144  1.00  0.00    -0.018 C 
HETATM   16  C   UNL     1       1.927   1.106  -0.375  1.00  0.00     0.008 C 
ENDBRANCH  14  15
ENDBRANCH  10  14
ENDBRANCH   1   8
BRANCH   4  17
HETATM   17  N   UNL     1      10.323  -5.303  -3.659  1.00  0.00    -0.363 N 
HETATM   18  C   UNL     1       9.753  -6.594  -4.072  1.00  0.00     0.150 C 
HETATM   19  C   UNL     1      10.363  -7.768  -3.296  1.00  0.00     0.187 C 
HETATM   20  O   UNL     1      11.801  -7.740  -3.342  1.00  0.00    -0.388 OA
HETATM   21  C   UNL     1      12.278  -6.526  -2.743  1.00  0.00     0.187 C 
HETATM   22  C   UNL     1      11.784  -5.286  -3.504  1.00  0.00     0.150 C 
ENDBRANCH   4  17
TORSDOF 4
