REMARK  6 active torsions:
REMARK  status: ('A' for Active; 'I' for Inactive)
REMARK    1  A    between atoms: O_2  and  C_3 
REMARK    2  A    between atoms: C_3  and  C_4 
REMARK    3  A    between atoms: C_4  and  N_6 
REMARK       I    between atoms: N_6  and  C_7 
REMARK    4  A    between atoms: C_7  and  C_9 
REMARK    5  A    between atoms: C_9  and  C_10 
REMARK    6  A    between atoms: C_13  and  N_16 
ROOT
HETATM    1  C   UNL     1       8.404   4.389  -1.388  1.00  0.00     0.026 A 
HETATM    2  C   UNL     1       9.208   5.271  -0.693  1.00  0.00     0.078 A 
HETATM    3  S   UNL     1      10.827   5.145  -1.246  1.00  0.00    -0.064 SA
HETATM    4  C   UNL     1      10.366   3.863  -2.289  1.00  0.00     0.153 A 
HETATM    5  N   UNL     1       9.082   3.604  -2.308  1.00  0.00    -0.339 N 
ATOM      6  HN  UNL     1       8.640   2.917  -2.918  1.00  0.00     0.168 HD
ENDROOT
BRANCH   1   7
HETATM    7  C   UNL     1       6.928   4.203  -1.250  1.00  0.00     0.160 C 
BRANCH   7   8
HETATM    8  C   UNL     1       6.519   2.836  -0.724  1.00  0.00     0.223 C 
HETATM    9  N   UNL     1       7.309   1.774  -1.087  1.00  0.00    -0.354 N 
HETATM   10  H   UNL     1       8.039   1.943  -1.785  1.00  0.00     0.162 HD
HETATM   11  O   UNL     1       5.495   2.701  -0.050  1.00  0.00    -0.273 OA
BRANCH   9  12
HETATM   12  C   UNL     1       7.025   0.399  -0.694  1.00  0.00     0.104 C 
HETATM   13  C   UNL     1       8.337  -0.353  -0.471  1.00  0.00     0.034 C 
BRANCH  12  14
HETATM   14  C   UNL     1       6.134  -0.316  -1.727  1.00  0.00     0.191 C 
BRANCH  14  15
HETATM   15  O   UNL     1       5.813  -1.630  -1.258  1.00  0.00    -0.394 OA
HETATM   16  C   UNL     1       4.987  -2.332  -2.176  1.00  0.00     0.201 C 
ENDBRANCH  14  15
ENDBRANCH  12  14
ENDBRANCH   9  12
ENDBRANCH   7   8
ENDBRANCH   1   7
BRANCH   4  17
HETATM   17  N   UNL     1      11.357   3.165  -2.954  1.00  0.00    -0.298 N 
HETATM   18  C   UNL     1      12.778   3.393  -2.904  1.00  0.00     0.134 C 
HETATM   19  C   UNL     1      13.409   2.254  -3.678  1.00  0.00     0.029 C 
HETATM   20  C   UNL     1      12.317   1.212  -3.822  1.00  0.00     0.105 C 
HETATM   21  C   UNL     1      11.030   1.957  -3.573  1.00  0.00     0.225 C 
HETATM   22  O   UNL     1       9.934   1.472  -3.810  1.00  0.00    -0.273 OA
ENDBRANCH   4  17
TORSDOF 6
