REMARK  4 active torsions:
REMARK  status: ('A' for Active; 'I' for Inactive)
REMARK    1  A    between atoms: O_2  and  C_3 
REMARK    2  A    between atoms: C_10  and  N_11 
REMARK       I    between atoms: N_11  and  C_12 
REMARK       I    between atoms: C_12  and  N_14 
REMARK    3  A    between atoms: N_14  and  C_15 
REMARK    4  A    between atoms: N_18  and  C_21 
ROOT
HETATM    1  N   UNL     1       5.867  -0.967  -0.823  1.00  0.00    -0.292 N 
HETATM    2  C   UNL     1       5.258  -1.736   0.141  1.00  0.00     0.322 C 
HETATM    3  O   UNL     1       5.102  -1.448   1.321  1.00  0.00    -0.247 OA
HETATM    4  N   UNL     1       4.834  -2.961  -0.358  1.00  0.00    -0.338 N 
HETATM    5  H   UNL     1       6.268  -1.422  -1.626  1.00  0.00     0.172 HD
HETATM    6  H   UNL     1       4.597  -2.969  -1.340  1.00  0.00     0.164 HD
ENDROOT
BRANCH   1   7
HETATM    7  C   UNL     1       6.234   0.378  -0.624  1.00  0.00     0.143 A 
HETATM    8  C   UNL     1       7.114   0.991  -1.527  1.00  0.00     0.112 A 
HETATM    9  C   UNL     1       7.422   2.339  -1.322  1.00  0.00     0.042 A 
HETATM   10  C   UNL     1       6.894   3.013  -0.223  1.00  0.00     0.027 A 
HETATM   11  C   UNL     1       6.046   2.329   0.631  1.00  0.00     0.007 A 
HETATM   12  C   UNL     1       5.501   2.961   1.873  1.00  0.00     0.068 C 
HETATM   13  N   UNL     1       5.706   1.041   0.427  1.00  0.00    -0.344 N 
ATOM     14  HN  UNL     1       5.057   0.572   1.059  1.00  0.00     0.167 HD
BRANCH   8  15
HETATM   15  O   UNL     1       7.609   0.241  -2.566  1.00  0.00    -0.352 OA
HETATM   16  C   UNL     1       8.887   0.654  -3.050  1.00  0.00     0.210 C 
ENDBRANCH   8  15
ENDBRANCH   1   7
BRANCH   4  17
HETATM   17  C   UNL     1       4.090  -3.863   0.530  1.00  0.00     0.089 C 
HETATM   18  C   UNL     1       4.223  -5.323   0.093  1.00  0.00     0.055 C 
HETATM   19  C   UNL     1       3.267  -5.691  -1.042  1.00  0.00     0.275 C 
HETATM   20  N   UNL     1       1.861  -5.350  -0.775  1.00  0.00     0.093 N 
HETATM   21  C   UNL     1       1.754  -3.911  -0.486  1.00  0.00     0.275 C 
HETATM   22  C   UNL     1       2.617  -3.450   0.687  1.00  0.00     0.055 C 
BRANCH  20  23
HETATM   23  C   UNL     1       1.218  -6.221   0.226  1.00  0.00     0.223 C 
HETATM   24  C   UNL     1       1.124  -7.699  -0.216  1.00  0.00     0.036 C 
HETATM   25  C   UNL     1      -0.224  -8.229   0.279  1.00  0.00     0.002 C 
HETATM   26  C   UNL     1      -0.802  -7.131   1.154  1.00  0.00     0.002 C 
HETATM   27  C   UNL     1      -0.243  -5.860   0.539  1.00  0.00     0.036 C 
ENDBRANCH  20  23
ENDBRANCH   4  17
TORSDOF 4
