REMARK  5 active torsions:
REMARK  status: ('A' for Active; 'I' for Inactive)
REMARK    1  A    between atoms: N_2  and  C_19 
REMARK    2  A    between atoms: C_7  and  N_13 
REMARK    3  A    between atoms: C_18  and  C_19 
REMARK    4  A    between atoms: C_18  and  C_30 
REMARK    5  A    between atoms: C_30  and  O_31 
ROOT
HETATM    1  C   UNL     1       0.349  -0.847  -0.021  1.00  0.00     0.122 A 
HETATM    2  N   UNL     1       1.534   0.979  -0.017  1.00  0.00    -0.326 N 
HETATM    3  C   UNL     1       0.241   0.535  -0.064  1.00  0.00     0.140 A 
HETATM    4  N   UNL     1       1.676  -1.235   0.011  1.00  0.00    -0.346 N 
ATOM      5  HN  UNL     1       2.045  -2.186   0.018  1.00  0.00     0.167 HD
HETATM    6  C   UNL     1      -0.852  -1.585   0.048  1.00  0.00     0.135 A 
HETATM    7  C   UNL     1       2.356  -0.113   0.031  1.00  0.00     0.185 A 
HETATM    8  N   UNL     1      -0.884   1.269  -0.103  1.00  0.00    -0.336 N 
ATOM      9  HN  UNL     1      -0.914   2.287  -0.157  1.00  0.00     0.168 HD
HETATM   10  N   UNL     1      -2.017  -0.881   0.031  1.00  0.00    -0.337 N 
ATOM     11  HN  UNL     1      -2.913  -1.365   0.086  1.00  0.00     0.168 HD
HETATM   12  C   UNL     1      -1.971   0.466  -0.060  1.00  0.00     0.183 A 
ENDROOT
BRANCH   6  13
HETATM   13  N   UNL     1      -0.844  -2.960   0.263  1.00  0.00    -0.365 N 
HETATM   14  C   UNL     1      -2.017  -3.521   0.912  1.00  0.00     0.127 C 
HETATM   15  C   UNL     1      -1.572  -4.810   1.599  1.00  0.00     0.061 C 
HETATM   16  C   UNL     1      -0.856  -5.749   0.627  1.00  0.00     0.118 A 
HETATM   17  C   UNL     1      -1.868  -6.494  -0.269  1.00  0.00     0.254 A 
HETATM   18  C   UNL     1       0.220  -5.072  -0.227  1.00  0.00     0.061 C 
HETATM   19  N   UNL     1      -0.306  -6.898   1.333  1.00  0.00    -0.324 N 
HETATM   20  N   UNL     1      -1.745  -7.829  -0.056  1.00  0.00    -0.277 N 
HETATM   21  O   UNL     1      -2.647  -5.987  -1.059  1.00  0.00    -0.270 OA
HETATM   22  C   UNL     1      -0.834  -8.088   0.910  1.00  0.00     0.323 A 
HETATM   23  H   UNL     1      -2.295  -8.537  -0.517  1.00  0.00     0.173 HD
HETATM   24  O   UNL     1      -0.545  -9.183   1.347  1.00  0.00    -0.247 OA
HETATM   25  C   UNL     1      -0.280  -3.758  -0.822  1.00  0.00     0.127 C 
HETATM   26  H   UNL     1       0.393  -6.864   2.061  1.00  0.00     0.165 HD
ENDBRANCH   6  13
BRANCH   2  27
HETATM   27  C   UNL     1       1.978   2.356   0.080  1.00  0.00     0.147 C 
BRANCH  27  28
HETATM   28  C   UNL     1       2.180   3.028  -1.271  1.00  0.00     0.040 C 
HETATM   29  C   UNL     1       3.269   2.434  -2.187  1.00  0.00     0.183 C 
HETATM   30  O   UNL     1       3.952   3.707  -2.261  1.00  0.00    -0.389 OA
HETATM   31  C   UNL     1       3.142   4.228  -1.179  1.00  0.00     0.183 C 
BRANCH  28  32
HETATM   32  C   UNL     1       0.894   3.312  -2.038  1.00  0.00     0.179 C 
BRANCH  32  33
HETATM   33  O   UNL     1      -0.003   4.050  -1.216  1.00  0.00    -0.400 OA
HETATM   34  H   UNL     1      -0.556   3.396  -0.741  1.00  0.00     0.209 HD
ENDBRANCH  32  33
ENDBRANCH  28  32
ENDBRANCH  27  28
ENDBRANCH   2  27
TORSDOF 5
