REMARK  1 active torsions:
REMARK  status: ('A' for Active; 'I' for Inactive)
REMARK    1  A    between atoms: C_5  and  C_7 
ROOT
HETATM    1  C   UNL     1       0.792   1.232  -0.245  1.00  0.00     0.031 C 
HETATM    2  C   UNL     1       1.473  -0.051   0.227  1.00  0.00     0.269 C 
HETATM    3  N   UNL     1       0.755  -1.238  -0.237  1.00  0.00     0.084 N 
HETATM    4  C   UNL     1      -0.636  -1.242   0.230  1.00  0.00     0.279 C 
HETATM    5  C   UNL     1      -1.411   0.010  -0.231  1.00  0.00     0.049 C 
HETATM    6  C   UNL     1      -0.667   1.283   0.202  1.00  0.00     0.013 C 
HETATM    7  H   UNL     1       1.227  -2.074   0.108  1.00  0.00     0.315 HD
ENDROOT
BRANCH   5   8
HETATM    8  C   UNL     1      -2.833   0.003   0.250  1.00  0.00    -0.019 A 
HETATM    9  C   UNL     1      -3.315   0.004   1.581  1.00  0.00     0.116 A 
HETATM   10  N   UNL     1      -4.647  -0.007   1.648  1.00  0.00    -0.312 N 
HETATM   11  N   UNL     1      -5.029  -0.010   0.362  1.00  0.00    -0.312 N 
ATOM     12  HN  UNL     1      -5.236  -0.012   2.481  1.00  0.00     0.186 HD
HETATM   13  C   UNL     1      -3.982  -0.005  -0.513  1.00  0.00     0.116 A 
HETATM   14  H   UNL     1      -6.022  -0.015   0.154  1.00  0.00     0.186 HD
ENDBRANCH   5   8
TORSDOF 1
