REMARK  5 active torsions:
REMARK  status: ('A' for Active; 'I' for Inactive)
REMARK    1  A    between atoms: C_2  and  N_3 
REMARK    2  A    between atoms: C_6  and  N_7 
REMARK       I    between atoms: N_7  and  C_8 
REMARK       I    between atoms: C_8  and  N_10 
REMARK    3  A    between atoms: N_10  and  C_11 
REMARK    4  A    between atoms: C_11  and  C_12 
REMARK    5  A    between atoms: C_16  and  C_17 
ROOT
HETATM    1  N   UNL     1       2.904   0.348   1.343  1.00  0.00    -0.295 N 
HETATM    2  N   UNL     1       2.709   1.599   1.787  1.00  0.00    -0.283 N 
ATOM      3  HN  UNL     1       2.256   2.370   1.297  1.00  0.00     0.189 HD
HETATM    4  C   UNL     1       3.240   1.611   3.014  1.00  0.00     0.125 C 
HETATM    5  C   UNL     1       3.723   0.332   3.372  1.00  0.00     0.077 C 
HETATM    6  C   UNL     1       3.583  -0.434   2.235  1.00  0.00     0.036 C 
ENDROOT
BRANCH   4   7
HETATM    7  N   UNL     1       3.342   2.743   3.793  1.00  0.00    -0.294 N 
HETATM    8  C   UNL     1       3.068   4.034   3.423  1.00  0.00     0.321 C 
HETATM    9  O   UNL     1       3.282   4.954   4.209  1.00  0.00    -0.247 OA
HETATM   10  N   UNL     1       2.582   4.215   2.168  1.00  0.00    -0.342 N 
HETATM   11  H   UNL     1       2.454   3.360   1.627  1.00  0.00     0.164 HD
HETATM   12  H   UNL     1       3.747   2.650   4.710  1.00  0.00     0.172 HD
BRANCH  10  13
HETATM   13  C   UNL     1       2.250   5.485   1.576  1.00  0.00     0.128 C 
BRANCH  13  14
HETATM   14  C   UNL     1       3.438   6.161   0.871  1.00  0.00    -0.005 C 
HETATM   15  C   UNL     1       3.965   5.337  -0.308  1.00  0.00     0.011 C 
HETATM   16  C   UNL     1       3.008   7.545   0.379  1.00  0.00     0.011 C 
ENDBRANCH  13  14
ENDBRANCH  10  13
ENDBRANCH   4   7
BRANCH   1  17
HETATM   17  C   UNL     1       2.494   0.026  -0.010  1.00  0.00     0.144 C 
HETATM   18  C   UNL     1       3.617   0.228  -1.012  1.00  0.00     0.028 C 
ENDBRANCH   1  17
BRANCH   6  19
HETATM   19  C   UNL     1       4.146  -1.819   1.969  1.00  0.00     0.037 A 
HETATM   20  C   UNL     1       4.435  -2.785   3.092  1.00  0.00     0.011 A 
HETATM   21  C   UNL     1       5.566  -2.061   2.446  1.00  0.00     0.011 A 
ENDBRANCH   6  19
TORSDOF 5
