REMARK  5 active torsions:
REMARK  status: ('A' for Active; 'I' for Inactive)
REMARK    1  A    between atoms: C_2  and  C_3 
REMARK       I    between atoms: C_2  and  N_9 
REMARK    2  A    between atoms: C_3  and  C_4 
REMARK    3  A    between atoms: N_9  and  C_10 
REMARK    4  A    between atoms: C_10  and  C_11 
REMARK    5  A    between atoms: C_11  and  N_12 
ROOT
HETATM    1  O   UNL     1       1.036   0.061   0.318  1.00  0.00    -0.274 OA
HETATM    2  C   UNL     1       2.249   0.059   0.132  1.00  0.00     0.218 C 
HETATM    3  N   UNL     1       3.154   0.338   1.134  1.00  0.00    -0.359 N 
HETATM    4  H   UNL     1       4.120   0.512   0.885  1.00  0.00     0.162 HD
ENDROOT
BRANCH   3   5
HETATM    5  C   UNL     1       2.714   0.694   2.472  1.00  0.00     0.143 C 
BRANCH   5   6
HETATM    6  C   UNL     1       2.030  -0.460   3.205  1.00  0.00     0.148 C 
BRANCH   6   7
HETATM    7  N   UNL     1       1.680  -0.099   4.563  1.00  0.00    -0.350 N 
HETATM    8  C   UNL     1       2.442  -0.301   5.676  1.00  0.00     0.108 A 
HETATM    9  C   UNL     1       1.695   0.214   6.711  1.00  0.00     0.106 A 
HETATM   10  N   UNL     1       0.506   0.718   6.250  1.00  0.00    -0.361 N 
HETATM   11  C   UNL     1       0.520   0.506   4.952  1.00  0.00     0.182 A 
ATOM     12  HN  UNL     1      -0.232   1.162   6.797  1.00  0.00     0.166 HD
ENDBRANCH   6   7
ENDBRANCH   5   6
ENDBRANCH   3   5
BRANCH   2  13
HETATM   13  C   UNL     1       2.877  -0.238  -1.217  1.00  0.00     0.111 C 
BRANCH  13  14
HETATM   14  C   UNL     1       2.654  -1.664  -1.731  1.00  0.00     0.017 C 
HETATM   15  C   UNL     1       1.182  -2.061  -1.934  1.00  0.00     0.012 C 
HETATM   16  C   UNL     1       0.830  -3.029  -0.803  1.00  0.00     0.027 C 
HETATM   17  C   UNL     1       2.166  -3.474  -0.307  1.00  0.00    -0.030 C 
HETATM   18  C   UNL     1       3.160  -2.733  -0.807  1.00  0.00    -0.026 C 
ENDBRANCH  13  14
ENDBRANCH   2  13
TORSDOF 5
