REMARK  4 active torsions:
REMARK  status: ('A' for Active; 'I' for Inactive)
REMARK       I    between atoms: N_2  and  C_3 
REMARK    1  A    between atoms: C_3  and  C_5 
REMARK       I    between atoms: N_8  and  C_11 
REMARK       I    between atoms: C_11  and  N_13 
REMARK    2  A    between atoms: N_13  and  C_14 
REMARK    3  A    between atoms: C_14  and  C_15 
REMARK    4  A    between atoms: C_15  and  C_16 
ROOT
HETATM    1  C   UNL     1       4.537   1.009   0.722  1.00  0.00     0.081 C 
HETATM    2  C   UNL     1       5.121   2.068  -0.226  1.00  0.00     0.034 C 
HETATM    3  C   UNL     1       4.928   1.700  -1.699  1.00  0.00     0.128 C 
HETATM    4  N   UNL     1       5.430   0.353  -1.977  1.00  0.00    -0.334 N 
HETATM    5  C   UNL     1       4.912  -0.703  -1.111  1.00  0.00     0.128 C 
HETATM    6  C   UNL     1       5.104  -0.370   0.366  1.00  0.00     0.034 C 
HETATM    7  C   UNL     1       6.223  -0.014  -3.048  1.00  0.00     0.318 C 
HETATM    8  O   UNL     1       6.668  -1.153  -3.188  1.00  0.00    -0.247 OA
HETATM    9  N   UNL     1       6.502   0.974  -3.955  1.00  0.00    -0.343 N 
HETATM   10  H   UNL     1       5.772   1.654  -4.092  1.00  0.00     0.164 HD
ENDROOT
BRANCH   9  11
HETATM   11  C   UNL     1       7.329   0.659  -5.109  1.00  0.00     0.129 C 
BRANCH  11  12
HETATM   12  C   UNL     1       7.614   1.861  -6.011  1.00  0.00     0.061 C 
BRANCH  12  13
HETATM   13  C   UNL     1       8.333   2.971  -5.324  1.00  0.00    -0.023 A 
HETATM   14  C   UNL     1       7.906   4.310  -5.167  1.00  0.00     0.115 A 
HETATM   15  N   UNL     1       8.778   5.052  -4.483  1.00  0.00    -0.310 N 
HETATM   16  N   UNL     1       9.771   4.192  -4.198  1.00  0.00    -0.308 N 
ATOM     17  HN  UNL     1       8.708   6.039  -4.235  1.00  0.00     0.186 HD
HETATM   18  C   UNL     1      10.907   4.621  -3.421  1.00  0.00     0.177 C 
HETATM   19  C   UNL     1       9.562   2.940  -4.698  1.00  0.00     0.118 A 
ENDBRANCH  12  13
ENDBRANCH  11  12
ENDBRANCH   9  11
BRANCH   1  20
HETATM   20  C   UNL     1       3.008   1.042   0.701  1.00  0.00     0.221 C 
HETATM   21  N   UNL     1       2.399   0.143   1.547  1.00  0.00    -0.365 N 
HETATM   22  C   UNL     1       0.960   0.122   1.665  1.00  0.00     0.149 C 
HETATM   23  H   UNL     1       2.946  -0.294   2.277  1.00  0.00     0.161 HD
HETATM   24  O   UNL     1       2.366   1.827   0.009  1.00  0.00    -0.273 OA
ENDBRANCH   1  20
TORSDOF 4
