REMARK  5 active torsions:
REMARK  status: ('A' for Active; 'I' for Inactive)
REMARK    1  A    between atoms: O_2  and  C_3 
REMARK    2  A    between atoms: C_3  and  C_4 
REMARK    3  A    between atoms: C_4  and  N_5 
REMARK    4  A    between atoms: C_8  and  C_13 
REMARK       I    between atoms: C_13  and  N_15 
REMARK    5  A    between atoms: N_15  and  C_16 
ROOT
HETATM    1  N   UNL     1       5.247   2.043  -1.624  1.00  0.00    -0.255 N 
HETATM    2  N   UNL     1       5.304   3.340  -1.113  1.00  0.00    -0.290 N 
ATOM      3  HN  UNL     1       5.524   3.521  -0.134  1.00  0.00     0.187 HD
HETATM    4  C   UNL     1       5.062   4.306  -1.948  1.00  0.00     0.116 A 
HETATM    5  C   UNL     1       4.696   4.127  -3.369  1.00  0.00     0.042 A 
HETATM    6  C   UNL     1       4.685   2.883  -3.842  1.00  0.00     0.078 A 
HETATM    7  C   UNL     1       4.993   1.740  -2.960  1.00  0.00     0.262 A 
HETATM    8  O   UNL     1       4.988   0.609  -3.440  1.00  0.00    -0.267 OA
ENDROOT
BRANCH   4   9
HETATM    9  C   UNL     1       5.144   5.764  -1.487  1.00  0.00     0.269 C 
HETATM   10  O   UNL     1       5.345   6.638  -2.320  1.00  0.00    -0.266 OA
HETATM   11  N   UNL     1       4.968   5.995  -0.140  1.00  0.00    -0.351 N 
HETATM   12  H   UNL     1       4.954   5.178   0.468  1.00  0.00     0.163 HD
BRANCH  11  13
HETATM   13  C   UNL     1       5.037   7.344   0.413  1.00  0.00     0.084 C 
HETATM   14  C   UNL     1       6.450   7.717   0.873  1.00  0.00     0.025 C 
HETATM   15  C   UNL     1       6.875   6.998   2.154  1.00  0.00     0.006 C 
HETATM   16  C   UNL     1       5.846   7.068   3.295  1.00  0.00    -0.019 C 
HETATM   17  C   UNL     1       5.940   8.391   4.060  1.00  0.00     0.010 C 
HETATM   18  C   UNL     1       4.413   6.795   2.817  1.00  0.00     0.006 C 
HETATM   19  C   UNL     1       4.033   7.553   1.548  1.00  0.00     0.025 C 
ENDBRANCH  11  13
ENDBRANCH   4   9
BRANCH   1  20
HETATM   20  C   UNL     1       5.397   0.944  -0.673  1.00  0.00     0.178 C 
BRANCH  20  21
HETATM   21  C   UNL     1       6.665   0.113  -0.879  1.00  0.00     0.189 C 
BRANCH  21  22
HETATM   22  O   UNL     1       6.694  -0.943   0.089  1.00  0.00    -0.394 OA
HETATM   23  C   UNL     1       7.815  -1.796  -0.106  1.00  0.00     0.201 C 
ENDBRANCH  21  22
ENDBRANCH  20  21
ENDBRANCH   1  20
TORSDOF 5
