REMARK  4 active torsions:
REMARK  status: ('A' for Active; 'I' for Inactive)
REMARK    1  A    between atoms: C_2  and  C_3 
REMARK       I    between atoms: N_6  and  C_10 
REMARK       I    between atoms: C_10  and  N_12 
REMARK    2  A    between atoms: N_12  and  C_13 
REMARK    3  A    between atoms: C_13  and  C_14 
REMARK    4  A    between atoms: C_14  and  C_15 
ROOT
HETATM    1  C   UNL     1       2.938  -0.483  -1.410  1.00  0.00     0.073 C 
HETATM    2  C   UNL     1       3.882   0.490  -2.134  1.00  0.00     0.047 C 
HETATM    3  C   UNL     1       1.742  -0.789  -2.356  1.00  0.00     0.165 C 
HETATM    4  N   UNL     1       0.953  -1.921  -1.860  1.00  0.00    -0.329 N 
HETATM    5  C   UNL     1       1.762  -3.115  -1.622  1.00  0.00     0.153 C 
HETATM    6  C   UNL     1       2.930  -2.789  -0.691  1.00  0.00     0.189 C 
HETATM    7  O   UNL     1       3.711  -1.684  -1.176  1.00  0.00    -0.377 OA
HETATM    8  C   UNL     1      -0.408  -1.983  -1.660  1.00  0.00     0.318 C 
HETATM    9  O   UNL     1      -0.974  -2.997  -1.259  1.00  0.00    -0.247 OA
HETATM   10  N   UNL     1      -1.107  -0.842  -1.938  1.00  0.00    -0.343 N 
HETATM   11  H   UNL     1      -0.621   0.038  -1.895  1.00  0.00     0.164 HD
ENDROOT
BRANCH  10  12
HETATM   12  C   UNL     1      -2.531  -0.740  -1.652  1.00  0.00     0.131 C 
BRANCH  12  13
HETATM   13  C   UNL     1      -2.814  -0.407  -0.184  1.00  0.00     0.084 C 
BRANCH  13  14
HETATM   14  C   UNL     1      -2.223   0.914   0.221  1.00  0.00     0.052 A 
HETATM   15  N   UNL     1      -2.041   1.938  -0.589  1.00  0.00    -0.363 N 
HETATM   16  C   UNL     1      -1.481   2.991   0.106  1.00  0.00     0.102 A 
ATOM     17  HN  UNL     1      -2.278   1.950  -1.581  1.00  0.00     0.165 HD
HETATM   18  C   UNL     1      -1.219   2.755   1.439  1.00  0.00    -0.004 A 
HETATM   19  C   UNL     1      -0.615   3.651   2.458  1.00  0.00     0.058 C 
HETATM   20  S   UNL     1      -1.713   1.166   1.845  1.00  0.00    -0.080 SA
ENDBRANCH  13  14
ENDBRANCH  12  13
ENDBRANCH  10  12
BRANCH   1  21
HETATM   21  C   UNL     1       2.446   0.141  -0.078  1.00  0.00     0.035 C 
HETATM   22  C   UNL     1       3.553   0.416   0.935  1.00  0.00     0.008 C 
ENDBRANCH   1  21
TORSDOF 4
