MODEL 1
REMARK VINA RESULT:      -6.4      0.000      0.000
REMARK  5 active torsions:
REMARK  status: ('A' for Active; 'I' for Inactive)
REMARK    1  A    between atoms: C_2  and  C_3 
REMARK    2  A    between atoms: C_2  and  N_10 
REMARK    3  A    between atoms: C_3  and  N_4 
REMARK    4  A    between atoms: N_10  and  C_11 
REMARK    5  A    between atoms: C_11  and  C_13 
REMARK       I    between atoms: C_13  and  N_15 
ROOT
HETATM    1  C   UNL     1     -42.274 -48.309  11.944  1.00  0.00     0.308 C 
HETATM    2  C   UNL     1     -43.048 -47.507  12.993  1.00  0.00     0.053 C 
ENDROOT
BRANCH   1   3
HETATM    3  N   UNL     1     -42.818 -48.134  10.581  1.00  0.00     0.102 N 
HETATM    4  H   UNL     1     -42.230 -48.641   9.921  1.00  0.00     0.317 HD
BRANCH   3   5
HETATM    5  C   UNL     1     -43.050 -46.739  10.154  1.00  0.00     0.237 C 
HETATM    6  C   UNL     1     -41.747 -45.923  10.143  1.00  0.00     0.044 C 
BRANCH   5   7
HETATM    7  C   UNL     1     -43.660 -46.660   8.736  1.00  0.00     0.183 C 
BRANCH   7   8
HETATM    8  N   UNL     1     -44.968 -47.260   8.584  1.00  0.00    -0.302 N 
HETATM    9  C   UNL     1     -46.084 -46.966   9.322  1.00  0.00     0.111 A 
HETATM   10  C   UNL     1     -47.017 -47.923   9.005  1.00  0.00     0.037 A 
HETATM   11  C   UNL     1     -46.375 -48.754   8.073  1.00  0.00     0.108 A 
HETATM   12  N   UNL     1     -45.122 -48.361   7.818  1.00  0.00    -0.310 N 
ATOM     13  HN  UNL     1     -44.442 -48.792   7.191  1.00  0.00     0.186 HD
ENDBRANCH   7   8
ENDBRANCH   5   7
ENDBRANCH   3   5
ENDBRANCH   1   3
BRANCH   1  14
HETATM   14  C   UNL     1     -42.284 -49.810  12.354  1.00  0.00     0.253 C 
HETATM   15  O   UNL     1     -43.265 -50.327  12.891  1.00  0.00    -0.271 OA
HETATM   16  N   UNL     1     -41.123 -50.541  12.114  1.00  0.00    -0.345 N 
HETATM   17  C   UNL     1     -40.995 -51.905  12.638  1.00  0.00     0.157 C 
HETATM   18  C   UNL     1     -39.939 -50.099  11.367  1.00  0.00     0.157 C 
HETATM   19  C   UNL     1     -39.698 -52.022  13.463  1.00  0.00     0.136 C 
HETATM   20  C   UNL     1     -39.468 -53.445  13.943  1.00  0.00     0.041 C 
HETATM   21  O   UNL     1     -38.554 -51.636  12.669  1.00  0.00    -0.378 OA
HETATM   22  C   UNL     1     -38.672 -50.276  12.221  1.00  0.00     0.136 C 
HETATM   23  C   UNL     1     -37.429 -49.924  11.418  1.00  0.00     0.041 C 
ENDBRANCH   1  14
TORSDOF 5
ENDMDL
MODEL 2
REMARK VINA RESULT:      -6.2      1.576      3.305
REMARK  5 active torsions:
REMARK  status: ('A' for Active; 'I' for Inactive)
REMARK    1  A    between atoms: C_2  and  C_3 
REMARK    2  A    between atoms: C_2  and  N_10 
REMARK    3  A    between atoms: C_3  and  N_4 
REMARK    4  A    between atoms: N_10  and  C_11 
REMARK    5  A    between atoms: C_11  and  C_13 
REMARK       I    between atoms: C_13  and  N_15 
ROOT
HETATM    1  C   UNL     1     -42.485 -48.376  11.947  1.00  0.00     0.308 C 
HETATM    2  C   UNL     1     -42.848 -47.530  13.169  1.00  0.00     0.053 C 
ENDROOT
BRANCH   1   3
HETATM    3  N   UNL     1     -43.415 -48.170  10.817  1.00  0.00     0.102 N 
HETATM    4  H   UNL     1     -43.810 -49.069  10.542  1.00  0.00     0.317 HD
BRANCH   3   5
HETATM    5  C   UNL     1     -42.869 -47.431   9.660  1.00  0.00     0.237 C 
HETATM    6  C   UNL     1     -43.650 -47.735   8.370  1.00  0.00     0.044 C 
BRANCH   5   7
HETATM    7  C   UNL     1     -42.908 -45.902   9.876  1.00  0.00     0.183 C 
BRANCH   7   8
HETATM    8  N   UNL     1     -41.711 -45.321  10.447  1.00  0.00    -0.302 N 
HETATM    9  C   UNL     1     -41.660 -44.255  11.305  1.00  0.00     0.111 A 
HETATM   10  C   UNL     1     -40.336 -43.902  11.400  1.00  0.00     0.037 A 
HETATM   11  C   UNL     1     -39.664 -44.806  10.561  1.00  0.00     0.108 A 
HETATM   12  N   UNL     1     -40.497 -45.668   9.970  1.00  0.00    -0.310 N 
ATOM     13  HN  UNL     1     -40.269 -46.414   9.312  1.00  0.00     0.186 HD
ENDBRANCH   7   8
ENDBRANCH   5   7
ENDBRANCH   3   5
ENDBRANCH   1   3
BRANCH   1  14
HETATM   14  C   UNL     1     -42.450 -49.874  12.366  1.00  0.00     0.253 C 
HETATM   15  O   UNL     1     -43.412 -50.414  12.918  1.00  0.00    -0.271 OA
HETATM   16  N   UNL     1     -41.273 -50.576  12.118  1.00  0.00    -0.345 N 
HETATM   17  C   UNL     1     -41.104 -51.933  12.650  1.00  0.00     0.157 C 
HETATM   18  C   UNL     1     -40.109 -50.108  11.356  1.00  0.00     0.157 C 
HETATM   19  C   UNL     1     -39.795 -52.010  13.462  1.00  0.00     0.136 C 
HETATM   20  C   UNL     1     -39.522 -53.423  13.949  1.00  0.00     0.041 C 
HETATM   21  O   UNL     1     -38.671 -51.600  12.653  1.00  0.00    -0.378 OA
HETATM   22  C   UNL     1     -38.829 -50.245  12.198  1.00  0.00     0.136 C 
HETATM   23  C   UNL     1     -37.604 -49.867  11.379  1.00  0.00     0.041 C 
ENDBRANCH   1  14
TORSDOF 5
ENDMDL
MODEL 3
REMARK VINA RESULT:      -5.9      2.453      6.621
REMARK  5 active torsions:
REMARK  status: ('A' for Active; 'I' for Inactive)
REMARK    1  A    between atoms: C_2  and  C_3 
REMARK    2  A    between atoms: C_2  and  N_10 
REMARK    3  A    between atoms: C_3  and  N_4 
REMARK    4  A    between atoms: N_10  and  C_11 
REMARK    5  A    between atoms: C_11  and  C_13 
REMARK       I    between atoms: C_13  and  N_15 
ROOT
HETATM    1  C   UNL     1     -42.955 -49.096  12.932  1.00  0.00     0.308 C 
HETATM    2  C   UNL     1     -43.154 -49.113  14.449  1.00  0.00     0.053 C 
ENDROOT
BRANCH   1   3
HETATM    3  N   UNL     1     -42.971 -50.451  12.342  1.00  0.00     0.102 N 
HETATM    4  H   UNL     1     -43.937 -50.767  12.260  1.00  0.00     0.317 HD
BRANCH   3   5
HETATM    5  C   UNL     1     -42.117 -51.454  13.009  1.00  0.00     0.237 C 
HETATM    6  C   UNL     1     -42.930 -52.674  13.474  1.00  0.00     0.044 C 
BRANCH   5   7
HETATM    7  C   UNL     1     -40.995 -51.971  12.081  1.00  0.00     0.183 C 
BRANCH   7   8
HETATM    8  N   UNL     1     -39.676 -51.427  12.333  1.00  0.00    -0.302 N 
HETATM    9  C   UNL     1     -38.969 -51.529  13.501  1.00  0.00     0.111 A 
HETATM   10  C   UNL     1     -37.896 -50.681  13.375  1.00  0.00     0.037 A 
HETATM   11  C   UNL     1     -38.041 -50.108  12.101  1.00  0.00     0.108 A 
HETATM   12  N   UNL     1     -39.130 -50.551  11.463  1.00  0.00    -0.310 N 
ATOM     13  HN  UNL     1     -39.467 -50.289  10.537  1.00  0.00     0.186 HD
ENDBRANCH   7   8
ENDBRANCH   5   7
ENDBRANCH   3   5
ENDBRANCH   1   3
BRANCH   1  14
HETATM   14  C   UNL     1     -41.617 -48.369  12.610  1.00  0.00     0.253 C 
HETATM   15  O   UNL     1     -40.669 -48.382  13.397  1.00  0.00    -0.271 OA
HETATM   16  N   UNL     1     -41.545 -47.677  11.403  1.00  0.00    -0.345 N 
HETATM   17  C   UNL     1     -40.388 -46.821  11.119  1.00  0.00     0.157 C 
HETATM   18  C   UNL     1     -42.534 -47.685  10.319  1.00  0.00     0.157 C 
HETATM   19  C   UNL     1     -40.872 -45.405  10.748  1.00  0.00     0.136 C 
HETATM   20  C   UNL     1     -39.715 -44.507  10.344  1.00  0.00     0.041 C 
HETATM   21  O   UNL     1     -41.794 -45.457   9.638  1.00  0.00    -0.378 OA
HETATM   22  C   UNL     1     -42.950 -46.248   9.964  1.00  0.00     0.136 C 
HETATM   23  C   UNL     1     -43.891 -46.240   8.768  1.00  0.00     0.041 C 
ENDBRANCH   1  14
TORSDOF 5
ENDMDL
MODEL 4
REMARK VINA RESULT:      -5.9      2.922      5.925
REMARK  5 active torsions:
REMARK  status: ('A' for Active; 'I' for Inactive)
REMARK    1  A    between atoms: C_2  and  C_3 
REMARK    2  A    between atoms: C_2  and  N_10 
REMARK    3  A    between atoms: C_3  and  N_4 
REMARK    4  A    between atoms: N_10  and  C_11 
REMARK    5  A    between atoms: C_11  and  C_13 
REMARK       I    between atoms: C_13  and  N_15 
ROOT
HETATM    1  C   UNL     1     -42.130 -49.537  12.641  1.00  0.00     0.308 C 
HETATM    2  C   UNL     1     -43.113 -48.864  13.601  1.00  0.00     0.053 C 
ENDROOT
BRANCH   1   3
HETATM    3  N   UNL     1     -41.620 -50.823  13.160  1.00  0.00     0.102 N 
HETATM    4  H   UNL     1     -40.601 -50.793  13.180  1.00  0.00     0.317 HD
BRANCH   3   5
HETATM    5  C   UNL     1     -42.122 -52.036  12.485  1.00  0.00     0.237 C 
HETATM    6  C   UNL     1     -40.992 -53.038  12.198  1.00  0.00     0.044 C 
BRANCH   5   7
HETATM    7  C   UNL     1     -43.191 -52.770  13.326  1.00  0.00     0.183 C 
BRANCH   7   8
HETATM    8  N   UNL     1     -44.533 -52.235  13.236  1.00  0.00    -0.302 N 
HETATM    9  C   UNL     1     -45.259 -51.695  14.264  1.00  0.00     0.111 A 
HETATM   10  C   UNL     1     -46.539 -51.538  13.789  1.00  0.00     0.037 A 
HETATM   11  C   UNL     1     -46.491 -52.014  12.469  1.00  0.00     0.108 A 
HETATM   12  N   UNL     1     -45.273 -52.449  12.127  1.00  0.00    -0.310 N 
ATOM     13  HN  UNL     1     -44.974 -52.848  11.238  1.00  0.00     0.186 HD
ENDBRANCH   7   8
ENDBRANCH   5   7
ENDBRANCH   3   5
ENDBRANCH   1   3
BRANCH   1  14
HETATM   14  C   UNL     1     -40.958 -48.554  12.353  1.00  0.00     0.253 C 
HETATM   15  O   UNL     1     -39.971 -48.492  13.088  1.00  0.00    -0.271 OA
HETATM   16  N   UNL     1     -41.084 -47.723  11.242  1.00  0.00    -0.345 N 
HETATM   17  C   UNL     1     -40.110 -46.651  11.016  1.00  0.00     0.157 C 
HETATM   18  C   UNL     1     -42.128 -47.779  10.211  1.00  0.00     0.157 C 
HETATM   19  C   UNL     1     -40.849 -45.308  10.850  1.00  0.00     0.136 C 
HETATM   20  C   UNL     1     -39.889 -44.180  10.510  1.00  0.00     0.041 C 
HETATM   21  O   UNL     1     -41.821 -45.391   9.785  1.00  0.00    -0.378 OA
HETATM   22  C   UNL     1     -42.803 -46.405  10.060  1.00  0.00     0.136 C 
HETATM   23  C   UNL     1     -43.809 -46.423   8.919  1.00  0.00     0.041 C 
ENDBRANCH   1  14
TORSDOF 5
ENDMDL
MODEL 5
REMARK VINA RESULT:      -5.9      2.547      3.357
REMARK  5 active torsions:
REMARK  status: ('A' for Active; 'I' for Inactive)
REMARK    1  A    between atoms: C_2  and  C_3 
REMARK    2  A    between atoms: C_2  and  N_10 
REMARK    3  A    between atoms: C_3  and  N_4 
REMARK    4  A    between atoms: N_10  and  C_11 
REMARK    5  A    between atoms: C_11  and  C_13 
REMARK       I    between atoms: C_13  and  N_15 
ROOT
HETATM    1  C   UNL     1     -40.351 -46.197  10.666  1.00  0.00     0.308 C 
HETATM    2  C   UNL     1     -39.598 -44.999  10.082  1.00  0.00     0.053 C 
ENDROOT
BRANCH   1   3
HETATM    3  N   UNL     1     -41.778 -46.214  10.281  1.00  0.00     0.102 N 
HETATM    4  H   UNL     1     -42.304 -45.631  10.931  1.00  0.00     0.317 HD
BRANCH   3   5
HETATM    5  C   UNL     1     -42.387 -47.550  10.121  1.00  0.00     0.237 C 
HETATM    6  C   UNL     1     -43.272 -47.920  11.323  1.00  0.00     0.044 C 
BRANCH   5   7
HETATM    7  C   UNL     1     -43.265 -47.640   8.853  1.00  0.00     0.183 C 
BRANCH   7   8
HETATM    8  N   UNL     1     -44.645 -47.232   9.018  1.00  0.00    -0.302 N 
HETATM    9  C   UNL     1     -45.721 -48.065   9.169  1.00  0.00     0.111 A 
HETATM   10  C   UNL     1     -46.838 -47.273   9.054  1.00  0.00     0.037 A 
HETATM   11  C   UNL     1     -46.338 -45.980   8.830  1.00  0.00     0.108 A 
HETATM   12  N   UNL     1     -45.001 -45.949   8.797  1.00  0.00    -0.310 N 
ATOM     13  HN  UNL     1     -44.393 -45.144   8.643  1.00  0.00     0.186 HD
ENDBRANCH   7   8
ENDBRANCH   5   7
ENDBRANCH   3   5
ENDBRANCH   1   3
BRANCH   1  14
HETATM   14  C   UNL     1     -40.197 -46.180  12.214  1.00  0.00     0.253 C 
HETATM   15  O   UNL     1     -40.516 -45.196  12.884  1.00  0.00    -0.271 OA
HETATM   16  N   UNL     1     -39.655 -47.316  12.811  1.00  0.00    -0.345 N 
HETATM   17  C   UNL     1     -39.312 -47.300  14.237  1.00  0.00     0.157 C 
HETATM   18  C   UNL     1     -39.358 -48.599  12.163  1.00  0.00     0.157 C 
HETATM   19  C   UNL     1     -37.842 -47.729  14.420  1.00  0.00     0.136 C 
HETATM   20  C   UNL     1     -37.468 -47.828  15.889  1.00  0.00     0.041 C 
HETATM   21  O   UNL     1     -37.613 -49.023  13.821  1.00  0.00    -0.378 OA
HETATM   22  C   UNL     1     -37.893 -48.997  12.411  1.00  0.00     0.136 C 
HETATM   23  C   UNL     1     -37.607 -50.376  11.837  1.00  0.00     0.041 C 
ENDBRANCH   1  14
TORSDOF 5
ENDMDL
MODEL 6
REMARK VINA RESULT:      -5.8      2.830      5.310
REMARK  5 active torsions:
REMARK  status: ('A' for Active; 'I' for Inactive)
REMARK    1  A    between atoms: C_2  and  C_3 
REMARK    2  A    between atoms: C_2  and  N_10 
REMARK    3  A    between atoms: C_3  and  N_4 
REMARK    4  A    between atoms: N_10  and  C_11 
REMARK    5  A    between atoms: C_11  and  C_13 
REMARK       I    between atoms: C_13  and  N_15 
ROOT
HETATM    1  C   UNL     1     -40.468 -51.841  13.540  1.00  0.00     0.308 C 
HETATM    2  C   UNL     1     -40.777 -50.641  14.438  1.00  0.00     0.053 C 
ENDROOT
BRANCH   1   3
HETATM    3  N   UNL     1     -39.515 -51.511  12.459  1.00  0.00     0.102 N 
HETATM    4  H   UNL     1     -38.653 -52.036  12.603  1.00  0.00     0.317 HD
BRANCH   3   5
HETATM    5  C   UNL     1     -39.255 -50.072  12.247  1.00  0.00     0.237 C 
HETATM    6  C   UNL     1     -37.766 -49.796  11.983  1.00  0.00     0.044 C 
BRANCH   5   7
HETATM    7  C   UNL     1     -40.051 -49.508  11.048  1.00  0.00     0.183 C 
BRANCH   7   8
HETATM    8  N   UNL     1     -41.154 -48.634  11.386  1.00  0.00    -0.302 N 
HETATM    9  C   UNL     1     -41.119 -47.596  12.280  1.00  0.00     0.111 A 
HETATM   10  C   UNL     1     -42.422 -47.202  12.461  1.00  0.00     0.037 A 
HETATM   11  C   UNL     1     -43.173 -48.060  11.641  1.00  0.00     0.108 A 
HETATM   12  N   UNL     1     -42.407 -48.942  10.990  1.00  0.00    -0.310 N 
ATOM     13  HN  UNL     1     -42.701 -49.675  10.345  1.00  0.00     0.186 HD
ENDBRANCH   7   8
ENDBRANCH   5   7
ENDBRANCH   3   5
ENDBRANCH   1   3
BRANCH   1  14
HETATM   14  C   UNL     1     -41.802 -52.385  12.953  1.00  0.00     0.253 C 
HETATM   15  O   UNL     1     -42.448 -51.749  12.117  1.00  0.00    -0.271 OA
HETATM   16  N   UNL     1     -42.254 -53.612  13.433  1.00  0.00    -0.345 N 
HETATM   17  C   UNL     1     -43.588 -54.097  13.063  1.00  0.00     0.157 C 
HETATM   18  C   UNL     1     -41.532 -54.535  14.317  1.00  0.00     0.157 C 
HETATM   19  C   UNL     1     -44.384 -54.440  14.338  1.00  0.00     0.136 C 
HETATM   20  C   UNL     1     -45.738 -55.044  14.005  1.00  0.00     0.041 C 
HETATM   21  O   UNL     1     -43.664 -55.397  15.145  1.00  0.00    -0.378 OA
HETATM   22  C   UNL     1     -42.387 -54.874  15.549  1.00  0.00     0.136 C 
HETATM   23  C   UNL     1     -41.693 -55.915  16.415  1.00  0.00     0.041 C 
ENDBRANCH   1  14
TORSDOF 5
ENDMDL
MODEL 7
REMARK VINA RESULT:      -5.7      2.687      7.314
REMARK  5 active torsions:
REMARK  status: ('A' for Active; 'I' for Inactive)
REMARK    1  A    between atoms: C_2  and  C_3 
REMARK    2  A    between atoms: C_2  and  N_10 
REMARK    3  A    between atoms: C_3  and  N_4 
REMARK    4  A    between atoms: N_10  and  C_11 
REMARK    5  A    between atoms: C_11  and  C_13 
REMARK       I    between atoms: C_13  and  N_15 
ROOT
HETATM    1  C   UNL     1     -42.270 -49.784  12.376  1.00  0.00     0.308 C 
HETATM    2  C   UNL     1     -42.629 -49.910  13.858  1.00  0.00     0.053 C 
ENDROOT
BRANCH   1   3
HETATM    3  N   UNL     1     -41.919 -51.082  11.765  1.00  0.00     0.102 N 
HETATM    4  H   UNL     1     -42.468 -51.209  10.915  1.00  0.00     0.317 HD
BRANCH   3   5
HETATM    5  C   UNL     1     -42.002 -52.258  12.655  1.00  0.00     0.237 C 
HETATM    6  C   UNL     1     -43.291 -53.062  12.417  1.00  0.00     0.044 C 
BRANCH   5   7
HETATM    7  C   UNL     1     -40.811 -53.221  12.459  1.00  0.00     0.183 C 
BRANCH   7   8
HETATM    8  N   UNL     1     -40.319 -53.860  13.662  1.00  0.00    -0.302 N 
HETATM    9  C   UNL     1     -40.687 -53.559  14.946  1.00  0.00     0.111 A 
HETATM   10  C   UNL     1     -39.814 -54.233  15.764  1.00  0.00     0.037 A 
HETATM   11  C   UNL     1     -38.953 -54.911  14.887  1.00  0.00     0.108 A 
HETATM   12  N   UNL     1     -39.249 -54.681  13.603  1.00  0.00    -0.310 N 
ATOM     13  HN  UNL     1     -38.776 -55.041  12.773  1.00  0.00     0.186 HD
ENDBRANCH   7   8
ENDBRANCH   5   7
ENDBRANCH   3   5
ENDBRANCH   1   3
BRANCH   1  14
HETATM   14  C   UNL     1     -41.099 -48.770  12.229  1.00  0.00     0.253 C 
HETATM   15  O   UNL     1     -40.164 -48.740  13.032  1.00  0.00    -0.271 OA
HETATM   16  N   UNL     1     -41.164 -47.875  11.163  1.00  0.00    -0.345 N 
HETATM   17  C   UNL     1     -40.195 -46.777  11.068  1.00  0.00     0.157 C 
HETATM   18  C   UNL     1     -42.134 -47.881  10.061  1.00  0.00     0.157 C 
HETATM   19  C   UNL     1     -40.945 -45.437  10.933  1.00  0.00     0.136 C 
HETATM   20  C   UNL     1     -39.984 -44.278  10.728  1.00  0.00     0.041 C 
HETATM   21  O   UNL     1     -41.841 -45.469   9.800  1.00  0.00    -0.378 OA
HETATM   22  C   UNL     1     -42.821 -46.510   9.946  1.00  0.00     0.136 C 
HETATM   23  C   UNL     1     -43.747 -46.473   8.740  1.00  0.00     0.041 C 
ENDBRANCH   1  14
TORSDOF 5
ENDMDL
MODEL 8
REMARK VINA RESULT:      -5.6      3.293      5.709
REMARK  5 active torsions:
REMARK  status: ('A' for Active; 'I' for Inactive)
REMARK    1  A    between atoms: C_2  and  C_3 
REMARK    2  A    between atoms: C_2  and  N_10 
REMARK    3  A    between atoms: C_3  and  N_4 
REMARK    4  A    between atoms: N_10  and  C_11 
REMARK    5  A    between atoms: C_11  and  C_13 
REMARK       I    between atoms: C_13  and  N_15 
ROOT
HETATM    1  C   UNL     1     -41.813 -52.123  13.464  1.00  0.00     0.308 C 
HETATM    2  C   UNL     1     -41.718 -52.779  12.085  1.00  0.00     0.053 C 
ENDROOT
BRANCH   1   3
HETATM    3  N   UNL     1     -42.766 -52.815  14.357  1.00  0.00     0.102 N 
HETATM    4  H   UNL     1     -42.426 -52.755  15.317  1.00  0.00     0.317 HD
BRANCH   3   5
HETATM    5  C   UNL     1     -43.113 -54.200  13.981  1.00  0.00     0.237 C 
HETATM    6  C   UNL     1     -42.820 -55.190  15.120  1.00  0.00     0.044 C 
BRANCH   5   7
HETATM    7  C   UNL     1     -44.606 -54.346  13.612  1.00  0.00     0.183 C 
BRANCH   7   8
HETATM    8  N   UNL     1     -45.351 -53.107  13.518  1.00  0.00    -0.302 N 
HETATM    9  C   UNL     1     -46.113 -52.545  14.507  1.00  0.00     0.111 A 
HETATM   10  C   UNL     1     -46.814 -51.523  13.916  1.00  0.00     0.037 A 
HETATM   11  C   UNL     1     -46.415 -51.546  12.570  1.00  0.00     0.108 A 
HETATM   12  N   UNL     1     -45.529 -52.516  12.318  1.00  0.00    -0.310 N 
ATOM     13  HN  UNL     1     -45.092 -52.753  11.427  1.00  0.00     0.186 HD
ENDBRANCH   7   8
ENDBRANCH   5   7
ENDBRANCH   3   5
ENDBRANCH   1   3
BRANCH   1  14
HETATM   14  C   UNL     1     -42.212 -50.630  13.282  1.00  0.00     0.253 C 
HETATM   15  O   UNL     1     -43.388 -50.264  13.334  1.00  0.00    -0.271 OA
HETATM   16  N   UNL     1     -41.184 -49.724  13.030  1.00  0.00    -0.345 N 
HETATM   17  C   UNL     1     -41.501 -48.338  12.668  1.00  0.00     0.157 C 
HETATM   18  C   UNL     1     -39.741 -49.990  13.076  1.00  0.00     0.157 C 
HETATM   19  C   UNL     1     -40.791 -47.974  11.349  1.00  0.00     0.136 C 
HETATM   20  C   UNL     1     -41.006 -46.514  10.985  1.00  0.00     0.041 C 
HETATM   21  O   UNL     1     -39.368 -48.193  11.461  1.00  0.00    -0.378 OA
HETATM   22  C   UNL     1     -39.079 -49.570  11.752  1.00  0.00     0.136 C 
HETATM   23  C   UNL     1     -37.569 -49.740  11.830  1.00  0.00     0.041 C 
ENDBRANCH   1  14
TORSDOF 5
ENDMDL
MODEL 9
REMARK VINA RESULT:      -5.6      2.206      2.696
REMARK  5 active torsions:
REMARK  status: ('A' for Active; 'I' for Inactive)
REMARK    1  A    between atoms: C_2  and  C_3 
REMARK    2  A    between atoms: C_2  and  N_10 
REMARK    3  A    between atoms: C_3  and  N_4 
REMARK    4  A    between atoms: N_10  and  C_11 
REMARK    5  A    between atoms: C_11  and  C_13 
REMARK       I    between atoms: C_13  and  N_15 
ROOT
HETATM    1  C   UNL     1     -39.802 -46.605  13.141  1.00  0.00     0.308 C 
HETATM    2  C   UNL     1     -38.713 -46.081  14.079  1.00  0.00     0.053 C 
ENDROOT
BRANCH   1   3
HETATM    3  N   UNL     1     -40.924 -45.655  12.985  1.00  0.00     0.102 N 
HETATM    4  H   UNL     1     -41.766 -46.065  13.389  1.00  0.00     0.317 HD
BRANCH   3   5
HETATM    5  C   UNL     1     -41.157 -45.152  11.617  1.00  0.00     0.237 C 
HETATM    6  C   UNL     1     -40.060 -44.168  11.176  1.00  0.00     0.044 C 
BRANCH   5   7
HETATM    7  C   UNL     1     -41.200 -46.294  10.577  1.00  0.00     0.183 C 
BRANCH   7   8
HETATM    8  N   UNL     1     -42.508 -46.598  10.036  1.00  0.00    -0.302 N 
HETATM    9  C   UNL     1     -43.521 -47.250  10.687  1.00  0.00     0.111 A 
HETATM   10  C   UNL     1     -44.473 -47.526   9.737  1.00  0.00     0.037 A 
HETATM   11  C   UNL     1     -43.948 -47.009   8.543  1.00  0.00     0.108 A 
HETATM   12  N   UNL     1     -42.745 -46.449   8.715  1.00  0.00    -0.310 N 
ATOM     13  HN  UNL     1     -42.147 -46.013   8.014  1.00  0.00     0.186 HD
ENDBRANCH   7   8
ENDBRANCH   5   7
ENDBRANCH   3   5
ENDBRANCH   1   3
BRANCH   1  14
HETATM   14  C   UNL     1     -40.310 -47.975  13.678  1.00  0.00     0.253 C 
HETATM   15  O   UNL     1     -41.059 -48.049  14.655  1.00  0.00    -0.271 OA
HETATM   16  N   UNL     1     -39.859 -49.120  13.025  1.00  0.00    -0.345 N 
HETATM   17  C   UNL     1     -40.147 -50.444  13.587  1.00  0.00     0.157 C 
HETATM   18  C   UNL     1     -39.083 -49.180  11.781  1.00  0.00     0.157 C 
HETATM   19  C   UNL     1     -38.833 -51.234  13.747  1.00  0.00     0.136 C 
HETATM   20  C   UNL     1     -39.089 -52.652  14.230  1.00  0.00     0.041 C 
HETATM   21  O   UNL     1     -38.135 -51.320  12.486  1.00  0.00    -0.378 OA
HETATM   22  C   UNL     1     -37.806 -50.012  11.988  1.00  0.00     0.136 C 
HETATM   23  C   UNL     1     -37.051 -50.172  10.676  1.00  0.00     0.041 C 
ENDBRANCH   1  14
TORSDOF 5
ENDMDL
