MODEL 1
REMARK VINA RESULT:      -6.2      0.000      0.000
REMARK  5 active torsions:
REMARK  status: ('A' for Active; 'I' for Inactive)
REMARK    1  A    between atoms: O_2  and  C_3 
REMARK    2  A    between atoms: C_6  and  N_7 
REMARK       I    between atoms: N_7  and  C_8 
REMARK       I    between atoms: C_8  and  N_10 
REMARK    3  A    between atoms: N_10  and  C_11 
REMARK    4  A    between atoms: C_11  and  C_12 
REMARK    5  A    between atoms: C_12  and  N_14 
ROOT
HETATM    1  N   UNL     1     -40.925 -50.899  11.267  1.00  0.00    -0.308 N 
HETATM    2  C   UNL     1     -41.452 -51.612  12.317  1.00  0.00     0.320 C 
HETATM    3  O   UNL     1     -41.648 -51.173  13.442  1.00  0.00    -0.247 OA
HETATM    4  N   UNL     1     -41.743 -52.929  11.997  1.00  0.00    -0.341 N 
HETATM    5  H   UNL     1     -40.449 -51.444  10.563  1.00  0.00     0.170 HD
HETATM    6  H   UNL     1     -42.066 -53.068  11.051  1.00  0.00     0.164 HD
ENDROOT
BRANCH   1   7
HETATM    7  C   UNL     1     -40.625 -49.514  11.347  1.00  0.00     0.051 A 
HETATM    8  C   UNL     1     -39.635 -48.997  12.186  1.00  0.00     0.035 A 
HETATM    9  C   UNL     1     -39.336 -47.637  12.163  1.00  0.00     0.058 A 
HETATM   10  C   UNL     1     -40.054 -46.823  11.307  1.00  0.00     0.141 A 
HETATM   11  N   UNL     1     -41.055 -47.266  10.516  1.00  0.00    -0.345 N 
HETATM   12  C   UNL     1     -41.317 -48.598  10.560  1.00  0.00     0.119 A 
ATOM     13  HN  UNL     1     -41.586 -46.633   9.916  1.00  0.00     0.167 HD
BRANCH  10  14
HETATM   14  O   UNL     1     -39.693 -45.490  11.304  1.00  0.00    -0.341 OA
HETATM   15  C   UNL     1     -39.600 -44.942   9.996  1.00  0.00     0.211 C 
ENDBRANCH  10  14
ENDBRANCH   1   7
BRANCH   4  16
HETATM   16  C   UNL     1     -42.437 -53.662  13.050  1.00  0.00     0.159 C 
BRANCH  16  17
HETATM   17  C   UNL     1     -43.957 -53.897  12.869  1.00  0.00     0.236 C 
HETATM   18  C   UNL     1     -44.440 -54.943  13.884  1.00  0.00     0.044 C 
BRANCH  17  19
HETATM   19  N   UNL     1     -44.697 -52.621  13.032  1.00  0.00     0.094 N 
HETATM   20  C   UNL     1     -44.867 -52.181  14.422  1.00  0.00     0.273 C 
HETATM   21  C   UNL     1     -46.201 -51.442  14.481  1.00  0.00     0.032 C 
HETATM   22  C   UNL     1     -46.700 -51.412  13.051  1.00  0.00     0.032 C 
HETATM   23  C   UNL     1     -46.033 -52.618  12.425  1.00  0.00     0.273 C 
ENDBRANCH  17  19
ENDBRANCH  16  17
ENDBRANCH   4  16
TORSDOF 5
ENDMDL
MODEL 2
REMARK VINA RESULT:      -6.2      2.512      7.703
REMARK  5 active torsions:
REMARK  status: ('A' for Active; 'I' for Inactive)
REMARK    1  A    between atoms: O_2  and  C_3 
REMARK    2  A    between atoms: C_6  and  N_7 
REMARK       I    between atoms: N_7  and  C_8 
REMARK       I    between atoms: C_8  and  N_10 
REMARK    3  A    between atoms: N_10  and  C_11 
REMARK    4  A    between atoms: C_11  and  C_12 
REMARK    5  A    between atoms: C_12  and  N_14 
ROOT
HETATM    1  N   UNL     1     -42.456 -52.615  11.753  1.00  0.00    -0.308 N 
HETATM    2  C   UNL     1     -41.736 -51.499  12.107  1.00  0.00     0.320 C 
HETATM    3  O   UNL     1     -41.868 -50.875  13.151  1.00  0.00    -0.247 OA
HETATM    4  N   UNL     1     -40.821 -51.108  11.143  1.00  0.00    -0.341 N 
HETATM    5  H   UNL     1     -42.552 -52.778  10.760  1.00  0.00     0.170 HD
HETATM    6  H   UNL     1     -40.396 -51.869  10.635  1.00  0.00     0.164 HD
ENDROOT
BRANCH   1   7
HETATM    7  C   UNL     1     -43.395 -53.236  12.618  1.00  0.00     0.051 A 
HETATM    8  C   UNL     1     -43.021 -54.089  13.659  1.00  0.00     0.035 A 
HETATM    9  C   UNL     1     -43.984 -54.608  14.520  1.00  0.00     0.058 A 
HETATM   10  C   UNL     1     -45.307 -54.272  14.303  1.00  0.00     0.141 A 
HETATM   11  N   UNL     1     -45.724 -53.495  13.280  1.00  0.00    -0.345 N 
HETATM   12  C   UNL     1     -44.758 -53.002  12.462  1.00  0.00     0.119 A 
ATOM     13  HN  UNL     1     -46.713 -53.289  13.129  1.00  0.00     0.167 HD
BRANCH  10  14
HETATM   14  O   UNL     1     -46.214 -54.790  15.206  1.00  0.00    -0.341 OA
HETATM   15  C   UNL     1     -46.151 -54.164  16.481  1.00  0.00     0.211 C 
ENDBRANCH  10  14
ENDBRANCH   1   7
BRANCH   4  16
HETATM   16  C   UNL     1     -39.944 -50.017  11.558  1.00  0.00     0.159 C 
BRANCH  16  17
HETATM   17  C   UNL     1     -38.573 -50.399  12.166  1.00  0.00     0.236 C 
HETATM   18  C   UNL     1     -37.448 -49.941  11.226  1.00  0.00     0.044 C 
BRANCH  17  19
HETATM   19  N   UNL     1     -38.418 -49.790  13.511  1.00  0.00     0.094 N 
HETATM   20  C   UNL     1     -38.191 -48.340  13.507  1.00  0.00     0.273 C 
HETATM   21  C   UNL     1     -37.304 -48.041  14.713  1.00  0.00     0.032 C 
HETATM   22  C   UNL     1     -37.142 -49.368  15.425  1.00  0.00     0.032 C 
HETATM   23  C   UNL     1     -37.347 -50.382  14.320  1.00  0.00     0.273 C 
ENDBRANCH  17  19
ENDBRANCH  16  17
ENDBRANCH   4  16
TORSDOF 5
ENDMDL
MODEL 3
REMARK VINA RESULT:      -6.1      1.572      1.892
REMARK  5 active torsions:
REMARK  status: ('A' for Active; 'I' for Inactive)
REMARK    1  A    between atoms: O_2  and  C_3 
REMARK    2  A    between atoms: C_6  and  N_7 
REMARK       I    between atoms: N_7  and  C_8 
REMARK       I    between atoms: C_8  and  N_10 
REMARK    3  A    between atoms: N_10  and  C_11 
REMARK    4  A    between atoms: C_11  and  C_12 
REMARK    5  A    between atoms: C_12  and  N_14 
ROOT
HETATM    1  N   UNL     1     -41.526 -49.143  10.800  1.00  0.00    -0.308 N 
HETATM    2  C   UNL     1     -41.681 -49.944  11.906  1.00  0.00     0.320 C 
HETATM    3  O   UNL     1     -41.820 -49.544  13.054  1.00  0.00    -0.247 OA
HETATM    4  N   UNL     1     -41.651 -51.298  11.613  1.00  0.00    -0.341 N 
HETATM    5  H   UNL     1     -41.029 -49.559  10.025  1.00  0.00     0.170 HD
HETATM    6  H   UNL     1     -42.061 -51.544  10.723  1.00  0.00     0.164 HD
ENDROOT
BRANCH   1   7
HETATM    7  C   UNL     1     -41.600 -47.727  10.854  1.00  0.00     0.051 A 
HETATM    8  C   UNL     1     -40.477 -46.912  11.015  1.00  0.00     0.035 A 
HETATM    9  C   UNL     1     -40.606 -45.526  10.985  1.00  0.00     0.058 A 
HETATM   10  C   UNL     1     -41.868 -44.989  10.812  1.00  0.00     0.141 A 
HETATM   11  N   UNL     1     -42.990 -45.733  10.705  1.00  0.00    -0.345 N 
HETATM   12  C   UNL     1     -42.827 -47.081  10.735  1.00  0.00     0.119 A 
ATOM     13  HN  UNL     1     -43.911 -45.305  10.608  1.00  0.00     0.167 HD
BRANCH  10  14
HETATM   14  O   UNL     1     -41.931 -43.611  10.759  1.00  0.00    -0.341 OA
HETATM   15  C   UNL     1     -40.796 -42.978  11.335  1.00  0.00     0.211 C 
ENDBRANCH  10  14
ENDBRANCH   1   7
BRANCH   4  16
HETATM   16  C   UNL     1     -41.961 -52.164  12.746  1.00  0.00     0.159 C 
BRANCH  16  17
HETATM   17  C   UNL     1     -43.306 -52.930  12.708  1.00  0.00     0.236 C 
HETATM   18  C   UNL     1     -43.272 -54.079  13.727  1.00  0.00     0.044 C 
BRANCH  17  19
HETATM   19  N   UNL     1     -44.433 -52.006  12.992  1.00  0.00     0.094 N 
HETATM   20  C   UNL     1     -44.516 -51.545  14.383  1.00  0.00     0.273 C 
HETATM   21  C   UNL     1     -45.999 -51.346  14.682  1.00  0.00     0.032 C 
HETATM   22  C   UNL     1     -46.708 -51.619  13.371  1.00  0.00     0.032 C 
HETATM   23  C   UNL     1     -45.753 -52.544  12.647  1.00  0.00     0.273 C 
ENDBRANCH  17  19
ENDBRANCH  16  17
ENDBRANCH   4  16
TORSDOF 5
ENDMDL
MODEL 4
REMARK VINA RESULT:      -5.7      2.316      7.069
REMARK  5 active torsions:
REMARK  status: ('A' for Active; 'I' for Inactive)
REMARK    1  A    between atoms: O_2  and  C_3 
REMARK    2  A    between atoms: C_6  and  N_7 
REMARK       I    between atoms: N_7  and  C_8 
REMARK       I    between atoms: C_8  and  N_10 
REMARK    3  A    between atoms: N_10  and  C_11 
REMARK    4  A    between atoms: C_11  and  C_12 
REMARK    5  A    between atoms: C_12  and  N_14 
ROOT
HETATM    1  N   UNL     1     -41.828 -51.716  11.601  1.00  0.00    -0.308 N 
HETATM    2  C   UNL     1     -41.442 -50.456  11.990  1.00  0.00     0.320 C 
HETATM    3  O   UNL     1     -41.436 -50.044  13.142  1.00  0.00    -0.247 OA
HETATM    4  N   UNL     1     -41.060 -49.647  10.932  1.00  0.00    -0.341 N 
HETATM    5  H   UNL     1     -42.172 -51.796  10.654  1.00  0.00     0.170 HD
HETATM    6  H   UNL     1     -40.591 -50.132  10.181  1.00  0.00     0.164 HD
ENDROOT
BRANCH   1   7
HETATM    7  C   UNL     1     -42.185 -52.735  12.522  1.00  0.00     0.051 A 
HETATM    8  C   UNL     1     -41.251 -53.410  13.311  1.00  0.00     0.035 A 
HETATM    9  C   UNL     1     -41.673 -54.347  14.250  1.00  0.00     0.058 A 
HETATM   10  C   UNL     1     -43.027 -54.598  14.363  1.00  0.00     0.141 A 
HETATM   11  N   UNL     1     -43.965 -54.012  13.587  1.00  0.00    -0.345 N 
HETATM   12  C   UNL     1     -43.519 -53.100  12.684  1.00  0.00     0.119 A 
ATOM     13  HN  UNL     1     -44.955 -54.241  13.675  1.00  0.00     0.167 HD
BRANCH  10  14
HETATM   14  O   UNL     1     -43.389 -55.513  15.332  1.00  0.00    -0.341 OA
HETATM   15  C   UNL     1     -42.363 -55.749  16.287  1.00  0.00     0.211 C 
ENDBRANCH  10  14
ENDBRANCH   1   7
BRANCH   4  16
HETATM   16  C   UNL     1     -40.509 -48.356  11.334  1.00  0.00     0.159 C 
BRANCH  16  17
HETATM   17  C   UNL     1     -41.453 -47.131  11.275  1.00  0.00     0.236 C 
HETATM   18  C   UNL     1     -40.639 -45.870  10.947  1.00  0.00     0.044 C 
BRANCH  17  19
HETATM   19  N   UNL     1     -42.517 -47.350  10.265  1.00  0.00     0.094 N 
HETATM   20  C   UNL     1     -42.734 -46.227   9.345  1.00  0.00     0.273 C 
HETATM   21  C   UNL     1     -44.218 -46.239   8.992  1.00  0.00     0.032 C 
HETATM   22  C   UNL     1     -44.778 -47.469   9.675  1.00  0.00     0.032 C 
HETATM   23  C   UNL     1     -43.828 -47.685  10.833  1.00  0.00     0.273 C 
ENDBRANCH  17  19
ENDBRANCH  16  17
ENDBRANCH   4  16
TORSDOF 5
ENDMDL
MODEL 5
REMARK VINA RESULT:      -5.7      2.064      2.880
REMARK  5 active torsions:
REMARK  status: ('A' for Active; 'I' for Inactive)
REMARK    1  A    between atoms: O_2  and  C_3 
REMARK    2  A    between atoms: C_6  and  N_7 
REMARK       I    between atoms: N_7  and  C_8 
REMARK       I    between atoms: C_8  and  N_10 
REMARK    3  A    between atoms: N_10  and  C_11 
REMARK    4  A    between atoms: C_11  and  C_12 
REMARK    5  A    between atoms: C_12  and  N_14 
ROOT
HETATM    1  N   UNL     1     -41.472 -49.205  10.467  1.00  0.00    -0.308 N 
HETATM    2  C   UNL     1     -41.097 -49.889  11.599  1.00  0.00     0.320 C 
HETATM    3  O   UNL     1     -40.988 -49.400  12.715  1.00  0.00    -0.247 OA
HETATM    4  N   UNL     1     -40.823 -51.227  11.367  1.00  0.00    -0.341 N 
HETATM    5  H   UNL     1     -41.137 -49.587   9.593  1.00  0.00     0.170 HD
HETATM    6  H   UNL     1     -41.401 -51.657  10.660  1.00  0.00     0.164 HD
ENDROOT
BRANCH   1   7
HETATM    7  C   UNL     1     -41.871 -47.843  10.482  1.00  0.00     0.051 A 
HETATM    8  C   UNL     1     -40.971 -46.788  10.649  1.00  0.00     0.035 A 
HETATM    9  C   UNL     1     -41.415 -45.470  10.580  1.00  0.00     0.058 A 
HETATM   10  C   UNL     1     -42.761 -45.243  10.362  1.00  0.00     0.141 A 
HETATM   11  N   UNL     1     -43.678 -46.227  10.247  1.00  0.00    -0.345 N 
HETATM   12  C   UNL     1     -43.210 -47.501  10.316  1.00  0.00     0.119 A 
ATOM     13  HN  UNL     1     -44.670 -46.025  10.116  1.00  0.00     0.167 HD
BRANCH  10  14
HETATM   14  O   UNL     1     -43.138 -43.918  10.271  1.00  0.00    -0.341 OA
HETATM   15  C   UNL     1     -42.669 -43.129  11.357  1.00  0.00     0.211 C 
ENDBRANCH  10  14
ENDBRANCH   1   7
BRANCH   4  16
HETATM   16  C   UNL     1     -40.567 -52.004  12.576  1.00  0.00     0.159 C 
BRANCH  16  17
HETATM   17  C   UNL     1     -41.299 -53.361  12.717  1.00  0.00     0.236 C 
HETATM   18  C   UNL     1     -40.395 -54.357  13.459  1.00  0.00     0.044 C 
BRANCH  17  19
HETATM   19  N   UNL     1     -42.585 -53.179  13.434  1.00  0.00     0.094 N 
HETATM   20  C   UNL     1     -43.747 -52.953  12.566  1.00  0.00     0.273 C 
HETATM   21  C   UNL     1     -44.694 -52.042  13.343  1.00  0.00     0.032 C 
HETATM   22  C   UNL     1     -44.047 -51.864  14.701  1.00  0.00     0.032 C 
HETATM   23  C   UNL     1     -42.578 -52.091  14.419  1.00  0.00     0.273 C 
ENDBRANCH  17  19
ENDBRANCH  16  17
ENDBRANCH   4  16
TORSDOF 5
ENDMDL
MODEL 6
REMARK VINA RESULT:      -5.5      1.927      3.206
REMARK  5 active torsions:
REMARK  status: ('A' for Active; 'I' for Inactive)
REMARK    1  A    between atoms: O_2  and  C_3 
REMARK    2  A    between atoms: C_6  and  N_7 
REMARK       I    between atoms: N_7  and  C_8 
REMARK       I    between atoms: C_8  and  N_10 
REMARK    3  A    between atoms: N_10  and  C_11 
REMARK    4  A    between atoms: C_11  and  C_12 
REMARK    5  A    between atoms: C_12  and  N_14 
ROOT
HETATM    1  N   UNL     1     -43.090 -48.780  11.417  1.00  0.00    -0.308 N 
HETATM    2  C   UNL     1     -43.242 -49.211  12.713  1.00  0.00     0.320 C 
HETATM    3  O   UNL     1     -42.734 -48.686  13.696  1.00  0.00    -0.247 OA
HETATM    4  N   UNL     1     -44.033 -50.342  12.828  1.00  0.00    -0.341 N 
HETATM    5  H   UNL     1     -43.198 -49.489  10.705  1.00  0.00     0.170 HD
HETATM    6  H   UNL     1     -44.793 -50.391  12.165  1.00  0.00     0.164 HD
ENDROOT
BRANCH   1   7
HETATM    7  C   UNL     1     -42.385 -47.598  11.072  1.00  0.00     0.051 A 
HETATM    8  C   UNL     1     -42.988 -46.339  11.021  1.00  0.00     0.035 A 
HETATM    9  C   UNL     1     -42.225 -45.206  10.750  1.00  0.00     0.058 A 
HETATM   10  C   UNL     1     -40.872 -45.368  10.517  1.00  0.00     0.141 A 
HETATM   11  N   UNL     1     -40.252 -46.568  10.502  1.00  0.00    -0.345 N 
HETATM   12  C   UNL     1     -41.026 -47.652  10.775  1.00  0.00     0.119 A 
ATOM     13  HN  UNL     1     -39.257 -46.657  10.297  1.00  0.00     0.167 HD
BRANCH  10  14
HETATM   14  O   UNL     1     -40.161 -44.208  10.284  1.00  0.00    -0.341 OA
HETATM   15  C   UNL     1     -40.555 -43.134  11.127  1.00  0.00     0.211 C 
ENDBRANCH  10  14
ENDBRANCH   1   7
BRANCH   4  16
HETATM   16  C   UNL     1     -44.328 -50.731  14.204  1.00  0.00     0.159 C 
BRANCH  16  17
HETATM   17  C   UNL     1     -45.037 -52.090  14.422  1.00  0.00     0.236 C 
HETATM   18  C   UNL     1     -46.287 -52.165  13.533  1.00  0.00     0.044 C 
BRANCH  17  19
HETATM   19  N   UNL     1     -44.108 -53.208  14.123  1.00  0.00     0.094 N 
HETATM   20  C   UNL     1     -44.551 -54.522  14.604  1.00  0.00     0.273 C 
HETATM   21  C   UNL     1     -43.287 -55.301  14.956  1.00  0.00     0.032 C 
HETATM   22  C   UNL     1     -42.140 -54.396  14.554  1.00  0.00     0.032 C 
HETATM   23  C   UNL     1     -42.746 -53.012  14.632  1.00  0.00     0.273 C 
ENDBRANCH  17  19
ENDBRANCH  16  17
ENDBRANCH   4  16
TORSDOF 5
ENDMDL
MODEL 7
REMARK VINA RESULT:      -5.3      2.360      7.506
REMARK  5 active torsions:
REMARK  status: ('A' for Active; 'I' for Inactive)
REMARK    1  A    between atoms: O_2  and  C_3 
REMARK    2  A    between atoms: C_6  and  N_7 
REMARK       I    between atoms: N_7  and  C_8 
REMARK       I    between atoms: C_8  and  N_10 
REMARK    3  A    between atoms: N_10  and  C_11 
REMARK    4  A    between atoms: C_11  and  C_12 
REMARK    5  A    between atoms: C_12  and  N_14 
ROOT
HETATM    1  N   UNL     1     -43.221 -51.801  12.576  1.00  0.00    -0.308 N 
HETATM    2  C   UNL     1     -42.401 -50.705  12.461  1.00  0.00     0.320 C 
HETATM    3  O   UNL     1     -42.574 -49.631  13.021  1.00  0.00    -0.247 OA
HETATM    4  N   UNL     1     -41.324 -50.911  11.613  1.00  0.00    -0.341 N 
HETATM    5  H   UNL     1     -43.212 -52.439  11.793  1.00  0.00     0.170 HD
HETATM    6  H   UNL     1     -40.951 -51.849  11.630  1.00  0.00     0.164 HD
ENDROOT
BRANCH   1   7
HETATM    7  C   UNL     1     -44.340 -51.841  13.448  1.00  0.00     0.051 A 
HETATM    8  C   UNL     1     -45.598 -51.348  13.095  1.00  0.00     0.035 A 
HETATM    9  C   UNL     1     -46.676 -51.485  13.967  1.00  0.00     0.058 A 
HETATM   10  C   UNL     1     -46.458 -52.099  15.185  1.00  0.00     0.141 A 
HETATM   11  N   UNL     1     -45.251 -52.545  15.595  1.00  0.00    -0.345 N 
HETATM   12  C   UNL     1     -44.223 -52.399  14.718  1.00  0.00     0.119 A 
ATOM     13  HN  UNL     1     -45.117 -52.968  16.514  1.00  0.00     0.167 HD
BRANCH  10  14
HETATM   14  O   UNL     1     -47.568 -52.235  15.996  1.00  0.00    -0.341 OA
HETATM   15  C   UNL     1     -47.782 -51.111  16.840  1.00  0.00     0.211 C 
ENDBRANCH  10  14
ENDBRANCH   1   7
BRANCH   4  16
HETATM   16  C   UNL     1     -40.362 -49.814  11.590  1.00  0.00     0.159 C 
BRANCH  16  17
HETATM   17  C   UNL     1     -39.063 -49.991  12.414  1.00  0.00     0.236 C 
HETATM   18  C   UNL     1     -37.845 -49.864  11.486  1.00  0.00     0.044 C 
BRANCH  17  19
HETATM   19  N   UNL     1     -39.004 -48.986  13.504  1.00  0.00     0.094 N 
HETATM   20  C   UNL     1     -39.591 -47.683  13.172  1.00  0.00     0.273 C 
HETATM   21  C   UNL     1     -38.790 -46.640  13.947  1.00  0.00     0.032 C 
HETATM   22  C   UNL     1     -37.813 -47.435  14.787  1.00  0.00     0.032 C 
HETATM   23  C   UNL     1     -37.651 -48.722  14.007  1.00  0.00     0.273 C 
ENDBRANCH  17  19
ENDBRANCH  16  17
ENDBRANCH   4  16
TORSDOF 5
ENDMDL
MODEL 8
REMARK VINA RESULT:      -5.3      2.561      7.358
REMARK  5 active torsions:
REMARK  status: ('A' for Active; 'I' for Inactive)
REMARK    1  A    between atoms: O_2  and  C_3 
REMARK    2  A    between atoms: C_6  and  N_7 
REMARK       I    between atoms: N_7  and  C_8 
REMARK       I    between atoms: C_8  and  N_10 
REMARK    3  A    between atoms: N_10  and  C_11 
REMARK    4  A    between atoms: C_11  and  C_12 
REMARK    5  A    between atoms: C_12  and  N_14 
ROOT
HETATM    1  N   UNL     1     -40.643 -53.137  13.176  1.00  0.00    -0.308 N 
HETATM    2  C   UNL     1     -40.238 -51.883  13.567  1.00  0.00     0.320 C 
HETATM    3  O   UNL     1     -40.957 -51.040  14.087  1.00  0.00    -0.247 OA
HETATM    4  N   UNL     1     -38.902 -51.629  13.304  1.00  0.00    -0.341 N 
HETATM    5  H   UNL     1     -40.108 -53.555  12.427  1.00  0.00     0.170 HD
HETATM    6  H   UNL     1     -38.296 -52.431  13.399  1.00  0.00     0.164 HD
ENDROOT
BRANCH   1   7
HETATM    7  C   UNL     1     -41.948 -53.639  13.416  1.00  0.00     0.051 A 
HETATM    8  C   UNL     1     -43.036 -53.360  12.585  1.00  0.00     0.035 A 
HETATM    9  C   UNL     1     -44.275 -53.943  12.832  1.00  0.00     0.058 A 
HETATM   10  C   UNL     1     -44.398 -54.783  13.923  1.00  0.00     0.141 A 
HETATM   11  N   UNL     1     -43.392 -55.042  14.786  1.00  0.00    -0.345 N 
HETATM   12  C   UNL     1     -42.195 -54.460  14.513  1.00  0.00     0.119 A 
ATOM     13  HN  UNL     1     -43.523 -55.644  15.600  1.00  0.00     0.167 HD
BRANCH  10  14
HETATM   14  O   UNL     1     -45.641 -55.357  14.102  1.00  0.00    -0.341 OA
HETATM   15  C   UNL     1     -46.531 -54.539  14.850  1.00  0.00     0.211 C 
ENDBRANCH  10  14
ENDBRANCH   1   7
BRANCH   4  16
HETATM   16  C   UNL     1     -38.415 -50.364  13.843  1.00  0.00     0.159 C 
BRANCH  16  17
HETATM   17  C   UNL     1     -37.891 -49.315  12.832  1.00  0.00     0.236 C 
HETATM   18  C   UNL     1     -37.583 -50.002  11.493  1.00  0.00     0.044 C 
BRANCH  17  19
HETATM   19  N   UNL     1     -38.887 -48.231  12.652  1.00  0.00     0.094 N 
HETATM   20  C   UNL     1     -39.521 -47.764  13.891  1.00  0.00     0.273 C 
HETATM   21  C   UNL     1     -40.938 -47.340  13.518  1.00  0.00     0.032 C 
HETATM   22  C   UNL     1     -41.016 -47.501  12.014  1.00  0.00     0.032 C 
HETATM   23  C   UNL     1     -39.975 -48.560  11.723  1.00  0.00     0.273 C 
ENDBRANCH  17  19
ENDBRANCH  16  17
ENDBRANCH   4  16
TORSDOF 5
ENDMDL
MODEL 9
REMARK VINA RESULT:      -5.3      4.661      7.263
REMARK  5 active torsions:
REMARK  status: ('A' for Active; 'I' for Inactive)
REMARK    1  A    between atoms: O_2  and  C_3 
REMARK    2  A    between atoms: C_6  and  N_7 
REMARK       I    between atoms: N_7  and  C_8 
REMARK       I    between atoms: C_8  and  N_10 
REMARK    3  A    between atoms: N_10  and  C_11 
REMARK    4  A    between atoms: C_11  and  C_12 
REMARK    5  A    between atoms: C_12  and  N_14 
ROOT
HETATM    1  N   UNL     1     -41.494 -46.157  10.236  1.00  0.00    -0.308 N 
HETATM    2  C   UNL     1     -41.122 -45.444  11.351  1.00  0.00     0.320 C 
HETATM    3  O   UNL     1     -41.893 -44.897  12.128  1.00  0.00    -0.247 OA
HETATM    4  N   UNL     1     -39.750 -45.376  11.528  1.00  0.00    -0.341 N 
HETATM    5  H   UNL     1     -40.809 -46.196   9.494  1.00  0.00     0.170 HD
HETATM    6  H   UNL     1     -39.248 -46.204  11.241  1.00  0.00     0.164 HD
ENDROOT
BRANCH   1   7
HETATM    7  C   UNL     1     -42.848 -46.420   9.902  1.00  0.00     0.051 A 
HETATM    8  C   UNL     1     -43.642 -45.523   9.184  1.00  0.00     0.035 A 
HETATM    9  C   UNL     1     -44.941 -45.871   8.822  1.00  0.00     0.058 A 
HETATM   10  C   UNL     1     -45.419 -47.110   9.207  1.00  0.00     0.141 A 
HETATM   11  N   UNL     1     -44.709 -47.990   9.947  1.00  0.00    -0.345 N 
HETATM   12  C   UNL     1     -43.445 -47.620  10.279  1.00  0.00     0.119 A 
ATOM     13  HN  UNL     1     -45.102 -48.885  10.240  1.00  0.00     0.167 HD
BRANCH  10  14
HETATM   14  O   UNL     1     -46.701 -47.413   8.794  1.00  0.00    -0.341 OA
HETATM   15  C   UNL     1     -46.973 -48.808   8.802  1.00  0.00     0.211 C 
ENDBRANCH  10  14
ENDBRANCH   1   7
BRANCH   4  16
HETATM   16  C   UNL     1     -39.337 -44.751  12.781  1.00  0.00     0.159 C 
BRANCH  16  17
HETATM   17  C   UNL     1     -38.796 -45.682  13.893  1.00  0.00     0.236 C 
HETATM   18  C   UNL     1     -39.374 -45.251  15.250  1.00  0.00     0.044 C 
BRANCH  17  19
HETATM   19  N   UNL     1     -39.142 -47.094  13.596  1.00  0.00     0.094 N 
HETATM   20  C   UNL     1     -40.303 -47.612  14.330  1.00  0.00     0.273 C 
HETATM   21  C   UNL     1     -40.041 -49.097  14.559  1.00  0.00     0.032 C 
HETATM   22  C   UNL     1     -38.742 -49.387  13.835  1.00  0.00     0.032 C 
HETATM   23  C   UNL     1     -38.046 -48.043  13.822  1.00  0.00     0.273 C 
ENDBRANCH  17  19
ENDBRANCH  16  17
ENDBRANCH   4  16
TORSDOF 5
ENDMDL
