MODEL 1
REMARK VINA RESULT:      -6.6      0.000      0.000
REMARK  4 active torsions:
REMARK  status: ('A' for Active; 'I' for Inactive)
REMARK    1  A    between atoms: C_2  and  C_3 
REMARK    2  A    between atoms: C_3  and  N_4 
REMARK       I    between atoms: N_4  and  C_5 
REMARK       I    between atoms: C_5  and  N_7 
REMARK    3  A    between atoms: N_7  and  C_8 
REMARK    4  A    between atoms: C_19  and  O_20 
ROOT
HETATM    1  N   UNL     1     -42.321 -53.079  14.578  1.00  0.00    -0.342 N 
HETATM    2  C   UNL     1     -41.322 -52.843  13.669  1.00  0.00     0.320 C 
HETATM    3  O   UNL     1     -41.057 -53.624  12.759  1.00  0.00    -0.247 OA
HETATM    4  N   UNL     1     -40.738 -51.609  13.856  1.00  0.00    -0.308 N 
HETATM    5  H   UNL     1     -42.353 -52.545  15.440  1.00  0.00     0.164 HD
HETATM    6  H   UNL     1     -41.333 -50.929  14.307  1.00  0.00     0.170 HD
ENDROOT
BRANCH   1   7
HETATM    7  C   UNL     1     -43.209 -54.219  14.473  1.00  0.00     0.136 C 
BRANCH   7   8
HETATM    8  C   UNL     1     -44.662 -53.807  14.115  1.00  0.00    -0.002 C 
HETATM    9  C   UNL     1     -45.470 -55.082  13.769  1.00  0.00     0.019 C 
HETATM   10  C   UNL     1     -45.284 -53.125  15.362  1.00  0.00     0.013 C 
HETATM   11  C   UNL     1     -46.655 -52.502  15.097  1.00  0.00     0.001 C 
HETATM   12  C   UNL     1     -46.615 -51.529  13.921  1.00  0.00     0.002 C 
HETATM   13  C   UNL     1     -46.022 -52.167  12.671  1.00  0.00     0.032 C 
HETATM   14  C   UNL     1     -44.650 -52.788  12.941  1.00  0.00     0.128 C 
BRANCH  14  15
HETATM   15  O   UNL     1     -44.152 -53.379  11.736  1.00  0.00    -0.395 OA
HETATM   16  H   UNL     1     -44.603 -52.939  10.989  1.00  0.00     0.210 HD
ENDBRANCH  14  15
ENDBRANCH   7   8
ENDBRANCH   1   7
BRANCH   4  17
HETATM   17  C   UNL     1     -39.736 -51.124  12.992  1.00  0.00     0.051 A 
HETATM   18  C   UNL     1     -38.398 -51.330  13.322  1.00  0.00     0.032 A 
HETATM   19  C   UNL     1     -37.404 -50.771  12.522  1.00  0.00     0.019 A 
HETATM   20  C   UNL     1     -37.784 -50.073  11.385  1.00  0.00     0.088 A 
HETATM   21  N   UNL     1     -39.065 -49.900  11.004  1.00  0.00    -0.373 N 
HETATM   22  C   UNL     1     -40.013 -50.417  11.824  1.00  0.00     0.117 A 
ATOM     23  HN  UNL     1     -39.308 -49.407  10.144  1.00  0.00     0.164 HD
ENDBRANCH   4  17
TORSDOF 4
ENDMDL
MODEL 2
REMARK VINA RESULT:      -6.4      2.495      7.010
REMARK  4 active torsions:
REMARK  status: ('A' for Active; 'I' for Inactive)
REMARK    1  A    between atoms: C_2  and  C_3 
REMARK    2  A    between atoms: C_3  and  N_4 
REMARK       I    between atoms: N_4  and  C_5 
REMARK       I    between atoms: C_5  and  N_7 
REMARK    3  A    between atoms: N_7  and  C_8 
REMARK    4  A    between atoms: C_19  and  O_20 
ROOT
HETATM    1  N   UNL     1     -42.328 -50.139  11.966  1.00  0.00    -0.342 N 
HETATM    2  C   UNL     1     -43.038 -50.914  12.845  1.00  0.00     0.320 C 
HETATM    3  O   UNL     1     -43.331 -50.533  13.975  1.00  0.00    -0.247 OA
HETATM    4  N   UNL     1     -43.442 -52.101  12.274  1.00  0.00    -0.308 N 
HETATM    5  H   UNL     1     -41.903 -50.565  11.149  1.00  0.00     0.164 HD
HETATM    6  H   UNL     1     -43.532 -52.072  11.269  1.00  0.00     0.170 HD
ENDROOT
BRANCH   1   7
HETATM    7  C   UNL     1     -41.957 -48.771  12.265  1.00  0.00     0.136 C 
BRANCH   7   8
HETATM    8  C   UNL     1     -40.426 -48.535  12.161  1.00  0.00    -0.002 C 
HETATM    9  C   UNL     1     -40.176 -47.243  11.346  1.00  0.00     0.019 C 
HETATM   10  C   UNL     1     -39.873 -48.354  13.599  1.00  0.00     0.013 C 
HETATM   11  C   UNL     1     -38.347 -48.296  13.664  1.00  0.00     0.001 C 
HETATM   12  C   UNL     1     -37.707 -49.510  12.996  1.00  0.00     0.002 C 
HETATM   13  C   UNL     1     -38.215 -49.716  11.574  1.00  0.00     0.032 C 
HETATM   14  C   UNL     1     -39.743 -49.774  11.515  1.00  0.00     0.128 C 
BRANCH  14  15
HETATM   15  O   UNL     1     -40.157 -49.955  10.157  1.00  0.00    -0.395 OA
HETATM   16  H   UNL     1     -41.129 -50.059  10.160  1.00  0.00     0.210 HD
ENDBRANCH  14  15
ENDBRANCH   7   8
ENDBRANCH   1   7
BRANCH   4  17
HETATM   17  C   UNL     1     -44.247 -53.024  12.972  1.00  0.00     0.051 A 
HETATM   18  C   UNL     1     -43.639 -54.073  13.656  1.00  0.00     0.032 A 
HETATM   19  C   UNL     1     -44.433 -55.041  14.267  1.00  0.00     0.019 A 
HETATM   20  C   UNL     1     -45.811 -54.892  14.221  1.00  0.00     0.088 A 
HETATM   21  N   UNL     1     -46.435 -53.862  13.616  1.00  0.00    -0.373 N 
HETATM   22  C   UNL     1     -45.640 -52.958  12.992  1.00  0.00     0.117 A 
ATOM     23  HN  UNL     1     -47.450 -53.767  13.628  1.00  0.00     0.164 HD
ENDBRANCH   4  17
TORSDOF 4
ENDMDL
MODEL 3
REMARK VINA RESULT:      -6.1      2.738      3.239
REMARK  4 active torsions:
REMARK  status: ('A' for Active; 'I' for Inactive)
REMARK    1  A    between atoms: C_2  and  C_3 
REMARK    2  A    between atoms: C_3  and  N_4 
REMARK       I    between atoms: N_4  and  C_5 
REMARK       I    between atoms: C_5  and  N_7 
REMARK    3  A    between atoms: N_7  and  C_8 
REMARK    4  A    between atoms: C_19  and  O_20 
ROOT
HETATM    1  N   UNL     1     -42.200 -51.424  12.675  1.00  0.00    -0.342 N 
HETATM    2  C   UNL     1     -42.114 -50.066  12.512  1.00  0.00     0.320 C 
HETATM    3  O   UNL     1     -42.358 -49.274  13.417  1.00  0.00    -0.247 OA
HETATM    4  N   UNL     1     -41.644 -49.729  11.261  1.00  0.00    -0.308 N 
HETATM    5  H   UNL     1     -42.228 -52.029  11.861  1.00  0.00     0.164 HD
HETATM    6  H   UNL     1     -41.076 -50.438  10.822  1.00  0.00     0.170 HD
ENDROOT
BRANCH   1   7
HETATM    7  C   UNL     1     -42.486 -52.032  13.959  1.00  0.00     0.136 C 
BRANCH   7   8
HETATM    8  C   UNL     1     -43.987 -52.392  14.123  1.00  0.00    -0.002 C 
HETATM    9  C   UNL     1     -44.096 -53.763  14.833  1.00  0.00     0.019 C 
HETATM   10  C   UNL     1     -44.644 -51.300  15.008  1.00  0.00     0.013 C 
HETATM   11  C   UNL     1     -46.165 -51.424  15.104  1.00  0.00     0.001 C 
HETATM   12  C   UNL     1     -46.817 -51.456  13.725  1.00  0.00     0.002 C 
HETATM   13  C   UNL     1     -46.208 -52.527  12.828  1.00  0.00     0.032 C 
HETATM   14  C   UNL     1     -44.686 -52.397  12.735  1.00  0.00     0.128 C 
BRANCH  14  15
HETATM   15  O   UNL     1     -44.173 -53.433  11.891  1.00  0.00    -0.395 OA
HETATM   16  H   UNL     1     -43.200 -53.342  11.876  1.00  0.00     0.210 HD
ENDBRANCH  14  15
ENDBRANCH   7   8
ENDBRANCH   1   7
BRANCH   4  17
HETATM   17  C   UNL     1     -41.407 -48.388  10.895  1.00  0.00     0.051 A 
HETATM   18  C   UNL     1     -40.246 -47.759  11.336  1.00  0.00     0.032 A 
HETATM   19  C   UNL     1     -40.053 -46.407  11.058  1.00  0.00     0.019 A 
HETATM   20  C   UNL     1     -41.005 -45.746  10.296  1.00  0.00     0.088 A 
HETATM   21  N   UNL     1     -42.114 -46.334   9.806  1.00  0.00    -0.373 N 
HETATM   22  C   UNL     1     -42.298 -47.638  10.128  1.00  0.00     0.117 A 
ATOM     23  HN  UNL     1     -42.778 -45.825   9.223  1.00  0.00     0.164 HD
ENDBRANCH   4  17
TORSDOF 4
ENDMDL
MODEL 4
REMARK VINA RESULT:      -5.8      2.186      6.930
REMARK  4 active torsions:
REMARK  status: ('A' for Active; 'I' for Inactive)
REMARK    1  A    between atoms: C_2  and  C_3 
REMARK    2  A    between atoms: C_3  and  N_4 
REMARK       I    between atoms: N_4  and  C_5 
REMARK       I    between atoms: C_5  and  N_7 
REMARK    3  A    between atoms: N_7  and  C_8 
REMARK    4  A    between atoms: C_19  and  O_20 
ROOT
HETATM    1  N   UNL     1     -41.910 -52.005  11.854  1.00  0.00    -0.342 N 
HETATM    2  C   UNL     1     -42.823 -52.390  12.801  1.00  0.00     0.320 C 
HETATM    3  O   UNL     1     -42.492 -52.824  13.901  1.00  0.00    -0.247 OA
HETATM    4  N   UNL     1     -44.117 -52.147  12.395  1.00  0.00    -0.308 N 
HETATM    5  H   UNL     1     -42.204 -51.883  10.891  1.00  0.00     0.164 HD
HETATM    6  H   UNL     1     -44.210 -51.404  11.717  1.00  0.00     0.170 HD
ENDROOT
BRANCH   1   7
HETATM    7  C   UNL     1     -40.485 -51.982  12.118  1.00  0.00     0.136 C 
BRANCH   7   8
HETATM    8  C   UNL     1     -39.936 -50.539  12.285  1.00  0.00    -0.002 C 
HETATM    9  C   UNL     1     -40.412 -49.684  11.085  1.00  0.00     0.019 C 
HETATM   10  C   UNL     1     -40.520 -49.956  13.598  1.00  0.00     0.013 C 
HETATM   11  C   UNL     1     -39.921 -48.605  13.987  1.00  0.00     0.001 C 
HETATM   12  C   UNL     1     -38.397 -48.663  14.061  1.00  0.00     0.002 C 
HETATM   13  C   UNL     1     -37.783 -49.219  12.782  1.00  0.00     0.032 C 
HETATM   14  C   UNL     1     -38.386 -50.572  12.399  1.00  0.00     0.128 C 
BRANCH  14  15
HETATM   15  O   UNL     1     -37.779 -51.035  11.188  1.00  0.00    -0.395 OA
HETATM   16  H   UNL     1     -36.923 -51.441  11.428  1.00  0.00     0.210 HD
ENDBRANCH  14  15
ENDBRANCH   7   8
ENDBRANCH   1   7
BRANCH   4  17
HETATM   17  C   UNL     1     -45.218 -52.399  13.238  1.00  0.00     0.051 A 
HETATM   18  C   UNL     1     -45.818 -51.335  13.907  1.00  0.00     0.032 A 
HETATM   19  C   UNL     1     -46.844 -51.590  14.815  1.00  0.00     0.019 A 
HETATM   20  C   UNL     1     -47.274 -52.898  14.976  1.00  0.00     0.088 A 
HETATM   21  N   UNL     1     -46.756 -53.947  14.306  1.00  0.00    -0.373 N 
HETATM   22  C   UNL     1     -45.729 -53.676  13.463  1.00  0.00     0.117 A 
ATOM     23  HN  UNL     1     -47.117 -54.893  14.428  1.00  0.00     0.164 HD
ENDBRANCH   4  17
TORSDOF 4
ENDMDL
MODEL 5
REMARK VINA RESULT:      -5.8      4.663      7.397
REMARK  4 active torsions:
REMARK  status: ('A' for Active; 'I' for Inactive)
REMARK    1  A    between atoms: C_2  and  C_3 
REMARK    2  A    between atoms: C_3  and  N_4 
REMARK       I    between atoms: N_4  and  C_5 
REMARK       I    between atoms: C_5  and  N_7 
REMARK    3  A    between atoms: N_7  and  C_8 
REMARK    4  A    between atoms: C_19  and  O_20 
ROOT
HETATM    1  N   UNL     1     -40.504 -49.810  10.806  1.00  0.00    -0.342 N 
HETATM    2  C   UNL     1     -41.621 -49.017  10.760  1.00  0.00     0.320 C 
HETATM    3  O   UNL     1     -42.398 -48.912  11.704  1.00  0.00    -0.247 OA
HETATM    4  N   UNL     1     -41.699 -48.309   9.580  1.00  0.00    -0.308 N 
HETATM    5  H   UNL     1     -40.027 -50.059   9.946  1.00  0.00     0.164 HD
HETATM    6  H   UNL     1     -40.809 -48.146   9.131  1.00  0.00     0.170 HD
ENDROOT
BRANCH   1   7
HETATM    7  C   UNL     1     -40.099 -50.505  12.011  1.00  0.00     0.136 C 
BRANCH   7   8
HETATM    8  C   UNL     1     -38.784 -49.936  12.610  1.00  0.00    -0.002 C 
HETATM    9  C   UNL     1     -37.752 -49.765  11.469  1.00  0.00     0.019 C 
HETATM   10  C   UNL     1     -39.104 -48.550  13.229  1.00  0.00     0.013 C 
HETATM   11  C   UNL     1     -37.941 -47.950  14.018  1.00  0.00     0.001 C 
HETATM   12  C   UNL     1     -37.433 -48.909  15.092  1.00  0.00     0.002 C 
HETATM   13  C   UNL     1     -37.095 -50.281  14.522  1.00  0.00     0.032 C 
HETATM   14  C   UNL     1     -38.263 -50.877  13.733  1.00  0.00     0.128 C 
BRANCH  14  15
HETATM   15  O   UNL     1     -37.881 -52.155  13.214  1.00  0.00    -0.395 OA
HETATM   16  H   UNL     1     -38.331 -52.267  12.354  1.00  0.00     0.210 HD
ENDBRANCH  14  15
ENDBRANCH   7   8
ENDBRANCH   1   7
BRANCH   4  17
HETATM   17  C   UNL     1     -42.728 -47.375   9.342  1.00  0.00     0.051 A 
HETATM   18  C   UNL     1     -42.574 -46.067   9.794  1.00  0.00     0.032 A 
HETATM   19  C   UNL     1     -43.626 -45.165   9.646  1.00  0.00     0.019 A 
HETATM   20  C   UNL     1     -44.776 -45.591   8.998  1.00  0.00     0.088 A 
HETATM   21  N   UNL     1     -44.941 -46.832   8.500  1.00  0.00    -0.373 N 
HETATM   22  C   UNL     1     -43.919 -47.701   8.696  1.00  0.00     0.117 A 
ATOM     23  HN  UNL     1     -45.789 -47.103   8.002  1.00  0.00     0.164 HD
ENDBRANCH   4  17
TORSDOF 4
ENDMDL
MODEL 6
REMARK VINA RESULT:      -5.7      3.807      7.262
REMARK  4 active torsions:
REMARK  status: ('A' for Active; 'I' for Inactive)
REMARK    1  A    between atoms: C_2  and  C_3 
REMARK    2  A    between atoms: C_3  and  N_4 
REMARK       I    between atoms: N_4  and  C_5 
REMARK       I    between atoms: C_5  and  N_7 
REMARK    3  A    between atoms: N_7  and  C_8 
REMARK    4  A    between atoms: C_19  and  O_20 
ROOT
HETATM    1  N   UNL     1     -43.352 -49.638  12.520  1.00  0.00    -0.342 N 
HETATM    2  C   UNL     1     -43.778 -50.672  13.311  1.00  0.00     0.320 C 
HETATM    3  O   UNL     1     -43.538 -50.727  14.514  1.00  0.00    -0.247 OA
HETATM    4  N   UNL     1     -44.563 -51.563  12.612  1.00  0.00    -0.308 N 
HETATM    5  H   UNL     1     -43.357 -49.740  11.511  1.00  0.00     0.164 HD
HETATM    6  H   UNL     1     -45.033 -51.168  11.811  1.00  0.00     0.170 HD
ENDROOT
BRANCH   1   7
HETATM    7  C   UNL     1     -42.674 -48.477  13.062  1.00  0.00     0.136 C 
BRANCH   7   8
HETATM    8  C   UNL     1     -42.481 -47.356  12.006  1.00  0.00    -0.002 C 
HETATM    9  C   UNL     1     -43.573 -47.504  10.918  1.00  0.00     0.019 C 
HETATM   10  C   UNL     1     -42.651 -45.991  12.724  1.00  0.00     0.013 C 
HETATM   11  C   UNL     1     -42.306 -44.790  11.844  1.00  0.00     0.001 C 
HETATM   12  C   UNL     1     -40.906 -44.910  11.248  1.00  0.00     0.002 C 
HETATM   13  C   UNL     1     -40.703 -46.233  10.521  1.00  0.00     0.032 C 
HETATM   14  C   UNL     1     -41.048 -47.432  11.408  1.00  0.00     0.128 C 
BRANCH  14  15
HETATM   15  O   UNL     1     -40.850 -48.640  10.668  1.00  0.00    -0.395 OA
HETATM   16  H   UNL     1     -41.326 -48.544   9.820  1.00  0.00     0.210 HD
ENDBRANCH  14  15
ENDBRANCH   7   8
ENDBRANCH   1   7
BRANCH   4  17
HETATM   17  C   UNL     1     -45.170 -52.669  13.242  1.00  0.00     0.051 A 
HETATM   18  C   UNL     1     -44.512 -53.896  13.243  1.00  0.00     0.032 A 
HETATM   19  C   UNL     1     -45.150 -55.012  13.779  1.00  0.00     0.019 A 
HETATM   20  C   UNL     1     -46.403 -54.848  14.350  1.00  0.00     0.088 A 
HETATM   21  N   UNL     1     -47.048 -53.666  14.418  1.00  0.00    -0.373 N 
HETATM   22  C   UNL     1     -46.424 -52.605  13.849  1.00  0.00     0.117 A 
ATOM     23  HN  UNL     1     -47.956 -53.576  14.873  1.00  0.00     0.164 HD
ENDBRANCH   4  17
TORSDOF 4
ENDMDL
MODEL 7
REMARK VINA RESULT:      -5.7      3.389      4.618
REMARK  4 active torsions:
REMARK  status: ('A' for Active; 'I' for Inactive)
REMARK    1  A    between atoms: C_2  and  C_3 
REMARK    2  A    between atoms: C_3  and  N_4 
REMARK       I    between atoms: N_4  and  C_5 
REMARK       I    between atoms: C_5  and  N_7 
REMARK    3  A    between atoms: N_7  and  C_8 
REMARK    4  A    between atoms: C_19  and  O_20 
ROOT
HETATM    1  N   UNL     1     -42.122 -50.586  13.135  1.00  0.00    -0.342 N 
HETATM    2  C   UNL     1     -41.969 -49.694  12.107  1.00  0.00     0.320 C 
HETATM    3  O   UNL     1     -40.988 -49.696  11.369  1.00  0.00    -0.247 OA
HETATM    4  N   UNL     1     -43.074 -48.882  11.963  1.00  0.00    -0.308 N 
HETATM    5  H   UNL     1     -42.810 -50.408  13.859  1.00  0.00     0.164 HD
HETATM    6  H   UNL     1     -43.934 -49.282  12.308  1.00  0.00     0.170 HD
ENDROOT
BRANCH   1   7
HETATM    7  C   UNL     1     -41.184 -51.667  13.367  1.00  0.00     0.136 C 
BRANCH   7   8
HETATM    8  C   UNL     1     -41.890 -53.041  13.518  1.00  0.00    -0.002 C 
HETATM    9  C   UNL     1     -40.973 -54.139  12.926  1.00  0.00     0.019 C 
HETATM   10  C   UNL     1     -42.099 -53.306  15.032  1.00  0.00     0.013 C 
HETATM   11  C   UNL     1     -42.950 -54.542  15.325  1.00  0.00     0.001 C 
HETATM   12  C   UNL     1     -44.293 -54.487  14.603  1.00  0.00     0.002 C 
HETATM   13  C   UNL     1     -44.131 -54.242  13.108  1.00  0.00     0.032 C 
HETATM   14  C   UNL     1     -43.279 -53.003  12.821  1.00  0.00     0.128 C 
BRANCH  14  15
HETATM   15  O   UNL     1     -43.153 -52.833  11.405  1.00  0.00    -0.395 OA
HETATM   16  H   UNL     1     -44.055 -52.739  11.041  1.00  0.00     0.210 HD
ENDBRANCH  14  15
ENDBRANCH   7   8
ENDBRANCH   1   7
BRANCH   4  17
HETATM   17  C   UNL     1     -43.168 -47.936  10.922  1.00  0.00     0.051 A 
HETATM   18  C   UNL     1     -44.367 -47.810  10.226  1.00  0.00     0.032 A 
HETATM   19  C   UNL     1     -44.437 -46.946   9.136  1.00  0.00     0.019 A 
HETATM   20  C   UNL     1     -43.317 -46.192   8.817  1.00  0.00     0.088 A 
HETATM   21  N   UNL     1     -42.157 -46.246   9.500  1.00  0.00    -0.373 N 
HETATM   22  C   UNL     1     -42.103 -47.128  10.529  1.00  0.00     0.117 A 
ATOM     23  HN  UNL     1     -41.362 -45.655   9.256  1.00  0.00     0.164 HD
ENDBRANCH   4  17
TORSDOF 4
ENDMDL
MODEL 8
REMARK VINA RESULT:      -5.6      3.423      5.334
REMARK  4 active torsions:
REMARK  status: ('A' for Active; 'I' for Inactive)
REMARK    1  A    between atoms: C_2  and  C_3 
REMARK    2  A    between atoms: C_3  and  N_4 
REMARK       I    between atoms: N_4  and  C_5 
REMARK       I    between atoms: C_5  and  N_7 
REMARK    3  A    between atoms: N_7  and  C_8 
REMARK    4  A    between atoms: C_19  and  O_20 
ROOT
HETATM    1  N   UNL     1     -42.140 -51.064  12.079  1.00  0.00    -0.342 N 
HETATM    2  C   UNL     1     -42.403 -49.719  12.091  1.00  0.00     0.320 C 
HETATM    3  O   UNL     1     -42.891 -49.148  13.062  1.00  0.00    -0.247 OA
HETATM    4  N   UNL     1     -41.973 -49.102  10.936  1.00  0.00    -0.308 N 
HETATM    5  H   UNL     1     -41.967 -51.536  11.198  1.00  0.00     0.164 HD
HETATM    6  H   UNL     1     -41.217 -49.577  10.464  1.00  0.00     0.170 HD
ENDROOT
BRANCH   1   7
HETATM    7  C   UNL     1     -42.323 -51.898  13.250  1.00  0.00     0.136 C 
BRANCH   7   8
HETATM    8  C   UNL     1     -40.983 -52.472  13.784  1.00  0.00    -0.002 C 
HETATM    9  C   UNL     1     -39.862 -51.433  13.536  1.00  0.00     0.019 C 
HETATM   10  C   UNL     1     -41.140 -52.707  15.310  1.00  0.00     0.013 C 
HETATM   11  C   UNL     1     -39.958 -53.444  15.939  1.00  0.00     0.001 C 
HETATM   12  C   UNL     1     -39.667 -54.761  15.224  1.00  0.00     0.002 C 
HETATM   13  C   UNL     1     -39.493 -54.571  13.723  1.00  0.00     0.032 C 
HETATM   14  C   UNL     1     -40.680 -53.833  13.097  1.00  0.00     0.128 C 
BRANCH  14  15
HETATM   15  O   UNL     1     -40.452 -53.676  11.693  1.00  0.00    -0.395 OA
HETATM   16  H   UNL     1     -39.533 -53.956  11.514  1.00  0.00     0.210 HD
ENDBRANCH  14  15
ENDBRANCH   7   8
ENDBRANCH   1   7
BRANCH   4  17
HETATM   17  C   UNL     1     -42.076 -47.708  10.757  1.00  0.00     0.051 A 
HETATM   18  C   UNL     1     -40.960 -46.909  10.996  1.00  0.00     0.032 A 
HETATM   19  C   UNL     1     -41.081 -45.524  10.914  1.00  0.00     0.019 A 
HETATM   20  C   UNL     1     -42.304 -44.988  10.539  1.00  0.00     0.088 A 
HETATM   21  N   UNL     1     -43.391 -45.730  10.248  1.00  0.00    -0.373 N 
HETATM   22  C   UNL     1     -43.257 -47.073  10.378  1.00  0.00     0.117 A 
ATOM     23  HN  UNL     1     -44.267 -45.303   9.945  1.00  0.00     0.164 HD
ENDBRANCH   4  17
TORSDOF 4
ENDMDL
MODEL 9
REMARK VINA RESULT:      -5.6      3.455      4.273
REMARK  4 active torsions:
REMARK  status: ('A' for Active; 'I' for Inactive)
REMARK    1  A    between atoms: C_2  and  C_3 
REMARK    2  A    between atoms: C_3  and  N_4 
REMARK       I    between atoms: N_4  and  C_5 
REMARK       I    between atoms: C_5  and  N_7 
REMARK    3  A    between atoms: N_7  and  C_8 
REMARK    4  A    between atoms: C_19  and  O_20 
ROOT
HETATM    1  N   UNL     1     -43.736 -50.133  12.479  1.00  0.00    -0.342 N 
HETATM    2  C   UNL     1     -43.121 -48.908  12.504  1.00  0.00     0.320 C 
HETATM    3  O   UNL     1     -42.850 -48.325  13.549  1.00  0.00    -0.247 OA
HETATM    4  N   UNL     1     -42.778 -48.481  11.239  1.00  0.00    -0.308 N 
HETATM    5  H   UNL     1     -44.155 -50.468  11.618  1.00  0.00     0.164 HD
HETATM    6  H   UNL     1     -42.644 -49.223  10.568  1.00  0.00     0.170 HD
ENDROOT
BRANCH   1   7
HETATM    7  C   UNL     1     -44.022 -50.879  13.688  1.00  0.00     0.136 C 
BRANCH   7   8
HETATM    8  C   UNL     1     -43.787 -52.404  13.512  1.00  0.00    -0.002 C 
HETATM    9  C   UNL     1     -42.735 -52.620  12.397  1.00  0.00     0.019 C 
HETATM   10  C   UNL     1     -43.240 -52.960  14.853  1.00  0.00     0.013 C 
HETATM   11  C   UNL     1     -43.135 -54.484  14.885  1.00  0.00     0.001 C 
HETATM   12  C   UNL     1     -44.464 -55.149  14.535  1.00  0.00     0.002 C 
HETATM   13  C   UNL     1     -45.030 -54.639  13.216  1.00  0.00     0.032 C 
HETATM   14  C   UNL     1     -45.133 -53.112  13.189  1.00  0.00     0.128 C 
BRANCH  14  15
HETATM   15  O   UNL     1     -45.658 -52.696  11.925  1.00  0.00    -0.395 OA
HETATM   16  H   UNL     1     -46.616 -52.888  11.929  1.00  0.00     0.210 HD
ENDBRANCH  14  15
ENDBRANCH   7   8
ENDBRANCH   1   7
BRANCH   4  17
HETATM   17  C   UNL     1     -42.070 -47.280  11.029  1.00  0.00     0.051 A 
HETATM   18  C   UNL     1     -40.678 -47.308  11.002  1.00  0.00     0.032 A 
HETATM   19  C   UNL     1     -39.973 -46.112  10.891  1.00  0.00     0.019 A 
HETATM   20  C   UNL     1     -40.688 -44.932  10.752  1.00  0.00     0.088 A 
HETATM   21  N   UNL     1     -42.034 -44.870  10.719  1.00  0.00    -0.373 N 
HETATM   22  C   UNL     1     -42.696 -46.044  10.873  1.00  0.00     0.117 A 
ATOM     23  HN  UNL     1     -42.528 -43.988  10.584  1.00  0.00     0.164 HD
ENDBRANCH   4  17
TORSDOF 4
ENDMDL
