MODEL 1
REMARK VINA RESULT:      -6.4      0.000      0.000
REMARK  4 active torsions:
REMARK  status: ('A' for Active; 'I' for Inactive)
REMARK    1  A    between atoms: S_2  and  C_4 
REMARK    2  A    between atoms: N_10  and  C_11 
REMARK    3  A    between atoms: C_11  and  C_12 
REMARK       I    between atoms: C_12  and  N_14 
REMARK    4  A    between atoms: N_14  and  C_15 
ROOT
HETATM    1  C   UNL     1     -42.731 -49.970  13.875  1.00  0.00     0.236 C 
HETATM    2  O   UNL     1     -42.517 -50.464  14.979  1.00  0.00    -0.272 OA
HETATM    3  N   UNL     1     -43.643 -50.510  12.982  1.00  0.00    -0.355 N 
HETATM    4  H   UNL     1     -43.936 -49.973  12.176  1.00  0.00     0.162 HD
ENDROOT
BRANCH   1   5
HETATM    5  C   UNL     1     -41.985 -48.746  13.375  1.00  0.00     0.234 C 
BRANCH   5   6
HETATM    6  N   UNL     1     -41.411 -48.988  12.070  1.00  0.00    -0.311 N 
HETATM    7  C   UNL     1     -40.467 -49.909  11.697  1.00  0.00     0.192 A 
HETATM    8  N   UNL     1     -40.386 -49.921  10.380  1.00  0.00    -0.277 N 
HETATM    9  N   UNL     1     -41.230 -48.954   9.889  1.00  0.00    -0.294 N 
ATOM     10  HN  UNL     1     -39.798 -50.542   9.823  1.00  0.00     0.189 HD
HETATM   11  C   UNL     1     -41.846 -48.412  10.911  1.00  0.00     0.202 A 
ATOM     12  HN  UNL     1     -41.353 -48.703   8.909  1.00  0.00     0.187 HD
BRANCH   7  13
HETATM   13  S   UNL     1     -39.525 -50.943  12.719  1.00  0.00     0.081 S 
HETATM   14  C   UNL     1     -40.479 -52.460  12.553  1.00  0.00     0.136 C 
HETATM   15  O   UNL     1     -38.168 -51.077  12.096  1.00  0.00    -0.250 OA
ENDBRANCH   7  13
ENDBRANCH   5   6
ENDBRANCH   1   5
BRANCH   3  16
HETATM   16  C   UNL     1     -44.448 -51.680  13.349  1.00  0.00     0.084 C 
HETATM   17  C   UNL     1     -44.051 -52.879  12.477  1.00  0.00     0.025 C 
HETATM   18  C   UNL     1     -44.585 -54.253  12.901  1.00  0.00     0.002 C 
HETATM   19  C   UNL     1     -44.575 -54.530  14.406  1.00  0.00     0.000 C 
HETATM   20  C   UNL     1     -45.927 -54.361  15.105  1.00  0.00     0.000 C 
HETATM   21  C   UNL     1     -46.522 -52.951  15.184  1.00  0.00     0.000 C 
HETATM   22  C   UNL     1     -46.925 -52.345  13.840  1.00  0.00     0.002 C 
HETATM   23  C   UNL     1     -45.938 -51.322  13.273  1.00  0.00     0.025 C 
ENDBRANCH   3  16
TORSDOF 4
ENDMDL
MODEL 2
REMARK VINA RESULT:      -5.8      2.219      3.152
REMARK  4 active torsions:
REMARK  status: ('A' for Active; 'I' for Inactive)
REMARK    1  A    between atoms: S_2  and  C_4 
REMARK    2  A    between atoms: N_10  and  C_11 
REMARK    3  A    between atoms: C_11  and  C_12 
REMARK       I    between atoms: C_12  and  N_14 
REMARK    4  A    between atoms: N_14  and  C_15 
ROOT
HETATM    1  C   UNL     1     -42.268 -52.160  12.670  1.00  0.00     0.236 C 
HETATM    2  O   UNL     1     -42.512 -51.134  13.299  1.00  0.00    -0.272 OA
HETATM    3  N   UNL     1     -43.162 -53.217  12.591  1.00  0.00    -0.355 N 
HETATM    4  H   UNL     1     -43.014 -53.952  11.911  1.00  0.00     0.162 HD
ENDROOT
BRANCH   1   5
HETATM    5  C   UNL     1     -40.947 -52.379  11.954  1.00  0.00     0.234 C 
BRANCH   5   6
HETATM    6  N   UNL     1     -39.831 -52.124  12.838  1.00  0.00    -0.311 N 
HETATM    7  C   UNL     1     -38.958 -51.067  12.846  1.00  0.00     0.192 A 
HETATM    8  N   UNL     1     -38.227 -51.133  13.942  1.00  0.00    -0.277 N 
HETATM    9  N   UNL     1     -38.574 -52.276  14.622  1.00  0.00    -0.294 N 
ATOM     10  HN  UNL     1     -37.526 -50.452  14.235  1.00  0.00     0.189 HD
HETATM   11  C   UNL     1     -39.543 -52.853  13.956  1.00  0.00     0.202 A 
ATOM     12  HN  UNL     1     -38.153 -52.614  15.487  1.00  0.00     0.187 HD
BRANCH   7  13
HETATM   13  S   UNL     1     -38.803 -49.803  11.672  1.00  0.00     0.081 S 
HETATM   14  C   UNL     1     -39.338 -48.409  12.677  1.00  0.00     0.136 C 
HETATM   15  O   UNL     1     -37.351 -49.696  11.314  1.00  0.00    -0.250 OA
ENDBRANCH   7  13
ENDBRANCH   5   6
ENDBRANCH   1   5
BRANCH   3  16
HETATM   16  C   UNL     1     -44.485 -53.126  13.219  1.00  0.00     0.084 C 
HETATM   17  C   UNL     1     -44.977 -54.529  13.600  1.00  0.00     0.025 C 
HETATM   18  C   UNL     1     -46.208 -54.609  14.511  1.00  0.00     0.002 C 
HETATM   19  C   UNL     1     -46.254 -53.589  15.651  1.00  0.00     0.000 C 
HETATM   20  C   UNL     1     -47.158 -52.378  15.399  1.00  0.00     0.000 C 
HETATM   21  C   UNL     1     -46.752 -51.398  14.294  1.00  0.00     0.000 C 
HETATM   22  C   UNL     1     -46.800 -51.969  12.876  1.00  0.00     0.002 C 
HETATM   23  C   UNL     1     -45.440 -52.362  12.294  1.00  0.00     0.025 C 
ENDBRANCH   3  16
TORSDOF 4
ENDMDL
MODEL 3
REMARK VINA RESULT:      -5.8      1.599      2.255
REMARK  4 active torsions:
REMARK  status: ('A' for Active; 'I' for Inactive)
REMARK    1  A    between atoms: S_2  and  C_4 
REMARK    2  A    between atoms: N_10  and  C_11 
REMARK    3  A    between atoms: C_11  and  C_12 
REMARK       I    between atoms: C_12  and  N_14 
REMARK    4  A    between atoms: N_14  and  C_15 
ROOT
HETATM    1  C   UNL     1     -41.986 -49.289  14.144  1.00  0.00     0.236 C 
HETATM    2  O   UNL     1     -42.878 -48.459  14.297  1.00  0.00    -0.272 OA
HETATM    3  N   UNL     1     -42.212 -50.653  14.246  1.00  0.00    -0.355 N 
HETATM    4  H   UNL     1     -41.509 -51.305  13.922  1.00  0.00     0.162 HD
ENDROOT
BRANCH   1   5
HETATM    5  C   UNL     1     -40.546 -48.893  13.868  1.00  0.00     0.234 C 
BRANCH   5   6
HETATM    6  N   UNL     1     -40.136 -49.323  12.550  1.00  0.00    -0.311 N 
HETATM    7  C   UNL     1     -39.122 -50.175  12.194  1.00  0.00     0.192 A 
HETATM    8  N   UNL     1     -39.231 -50.446  10.908  1.00  0.00    -0.277 N 
HETATM    9  N   UNL     1     -40.278 -49.713  10.401  1.00  0.00    -0.294 N 
ATOM     10  HN  UNL     1     -38.640 -51.088  10.379  1.00  0.00     0.189 HD
HETATM   11  C   UNL     1     -40.818 -49.055  11.398  1.00  0.00     0.202 A 
ATOM     12  HN  UNL     1     -40.580 -49.686   9.427  1.00  0.00     0.187 HD
BRANCH   7  13
HETATM   13  S   UNL     1     -37.893 -50.852  13.209  1.00  0.00     0.081 S 
HETATM   14  C   UNL     1     -38.885 -52.060  14.099  1.00  0.00     0.136 C 
HETATM   15  O   UNL     1     -36.887 -51.517  12.317  1.00  0.00    -0.250 OA
ENDBRANCH   7  13
ENDBRANCH   5   6
ENDBRANCH   1   5
BRANCH   3  16
HETATM   16  C   UNL     1     -43.563 -51.172  14.487  1.00  0.00     0.084 C 
HETATM   17  C   UNL     1     -43.631 -51.819  15.877  1.00  0.00     0.025 C 
HETATM   18  C   UNL     1     -45.026 -52.167  16.413  1.00  0.00     0.002 C 
HETATM   19  C   UNL     1     -46.116 -51.128  16.141  1.00  0.00     0.000 C 
HETATM   20  C   UNL     1     -47.048 -51.459  14.970  1.00  0.00     0.000 C 
HETATM   21  C   UNL     1     -46.450 -51.469  13.560  1.00  0.00     0.000 C 
HETATM   22  C   UNL     1     -45.422 -52.571  13.302  1.00  0.00     0.002 C 
HETATM   23  C   UNL     1     -43.962 -52.113  13.343  1.00  0.00     0.025 C 
ENDBRANCH   3  16
TORSDOF 4
ENDMDL
MODEL 4
REMARK VINA RESULT:      -5.8      2.064      2.515
REMARK  4 active torsions:
REMARK  status: ('A' for Active; 'I' for Inactive)
REMARK    1  A    between atoms: S_2  and  C_4 
REMARK    2  A    between atoms: N_10  and  C_11 
REMARK    3  A    between atoms: C_11  and  C_12 
REMARK       I    between atoms: C_12  and  N_14 
REMARK    4  A    between atoms: N_14  and  C_15 
ROOT
HETATM    1  C   UNL     1     -43.377 -49.765  13.120  1.00  0.00     0.236 C 
HETATM    2  O   UNL     1     -42.869 -49.924  14.226  1.00  0.00    -0.272 OA
HETATM    3  N   UNL     1     -44.354 -50.613  12.620  1.00  0.00    -0.355 N 
HETATM    4  H   UNL     1     -44.885 -50.341  11.802  1.00  0.00     0.162 HD
ENDROOT
BRANCH   1   5
HETATM    5  C   UNL     1     -42.952 -48.648  12.183  1.00  0.00     0.234 C 
BRANCH   5   6
HETATM    6  N   UNL     1     -41.635 -48.899  11.643  1.00  0.00    -0.311 N 
HETATM    7  C   UNL     1     -40.636 -48.008  11.347  1.00  0.00     0.192 A 
HETATM    8  N   UNL     1     -39.537 -48.683  11.070  1.00  0.00    -0.277 N 
HETATM    9  N   UNL     1     -39.833 -50.024  11.115  1.00  0.00    -0.294 N 
ATOM     10  HN  UNL     1     -38.624 -48.278  10.859  1.00  0.00     0.189 HD
HETATM   11  C   UNL     1     -41.089 -50.139  11.471  1.00  0.00     0.202 A 
ATOM     12  HN  UNL     1     -39.193 -50.790  10.908  1.00  0.00     0.187 HD
BRANCH   7  13
HETATM   13  S   UNL     1     -40.717 -46.278  11.350  1.00  0.00     0.081 S 
HETATM   14  C   UNL     1     -40.251 -45.970  13.060  1.00  0.00     0.136 C 
HETATM   15  O   UNL     1     -39.672 -45.776  10.398  1.00  0.00    -0.250 OA
ENDBRANCH   7  13
ENDBRANCH   5   6
ENDBRANCH   1   5
BRANCH   3  16
HETATM   16  C   UNL     1     -44.872 -51.720  13.431  1.00  0.00     0.084 C 
HETATM   17  C   UNL     1     -44.764 -53.034  12.648  1.00  0.00     0.025 C 
HETATM   18  C   UNL     1     -44.997 -54.331  13.433  1.00  0.00     0.002 C 
HETATM   19  C   UNL     1     -44.384 -54.374  14.835  1.00  0.00     0.000 C 
HETATM   20  C   UNL     1     -45.368 -54.112  15.979  1.00  0.00     0.000 C 
HETATM   21  C   UNL     1     -45.979 -52.711  16.091  1.00  0.00     0.000 C 
HETATM   22  C   UNL     1     -46.913 -52.322  14.944  1.00  0.00     0.002 C 
HETATM   23  C   UNL     1     -46.295 -51.390  13.900  1.00  0.00     0.025 C 
ENDBRANCH   3  16
TORSDOF 4
ENDMDL
MODEL 5
REMARK VINA RESULT:      -5.8      2.838      3.771
REMARK  4 active torsions:
REMARK  status: ('A' for Active; 'I' for Inactive)
REMARK    1  A    between atoms: S_2  and  C_4 
REMARK    2  A    between atoms: N_10  and  C_11 
REMARK    3  A    between atoms: C_11  and  C_12 
REMARK       I    between atoms: C_12  and  N_14 
REMARK    4  A    between atoms: N_14  and  C_15 
ROOT
HETATM    1  C   UNL     1     -42.700 -49.790  12.891  1.00  0.00     0.236 C 
HETATM    2  O   UNL     1     -42.479 -49.820  14.099  1.00  0.00    -0.272 OA
HETATM    3  N   UNL     1     -42.790 -50.939  12.122  1.00  0.00    -0.355 N 
HETATM    4  H   UNL     1     -43.166 -50.888  11.183  1.00  0.00     0.162 HD
ENDROOT
BRANCH   1   5
HETATM    5  C   UNL     1     -42.855 -48.487  12.126  1.00  0.00     0.234 C 
BRANCH   5   6
HETATM    6  N   UNL     1     -41.599 -48.082  11.536  1.00  0.00    -0.311 N 
HETATM    7  C   UNL     1     -41.251 -46.877  10.982  1.00  0.00     0.192 A 
HETATM    8  N   UNL     1     -39.953 -46.877  10.753  1.00  0.00    -0.277 N 
HETATM    9  N   UNL     1     -39.456 -48.112  11.092  1.00  0.00    -0.294 N 
ATOM     10  HN  UNL     1     -39.410 -46.094  10.386  1.00  0.00     0.189 HD
HETATM   11  C   UNL     1     -40.450 -48.819  11.571  1.00  0.00     0.202 A 
ATOM     12  HN  UNL     1     -38.490 -48.423  10.990  1.00  0.00     0.187 HD
BRANCH   7  13
HETATM   13  S   UNL     1     -42.279 -45.524  10.643  1.00  0.00     0.081 S 
HETATM   14  C   UNL     1     -41.161 -44.191  11.098  1.00  0.00     0.136 C 
HETATM   15  O   UNL     1     -42.558 -45.529   9.169  1.00  0.00    -0.250 OA
ENDBRANCH   7  13
ENDBRANCH   5   6
ENDBRANCH   1   5
BRANCH   3  16
HETATM   16  C   UNL     1     -42.683 -52.265  12.740  1.00  0.00     0.084 C 
HETATM   17  C   UNL     1     -41.376 -52.939  12.302  1.00  0.00     0.025 C 
HETATM   18  C   UNL     1     -40.960 -54.205  13.060  1.00  0.00     0.002 C 
HETATM   19  C   UNL     1     -41.181 -54.172  14.574  1.00  0.00     0.000 C 
HETATM   20  C   UNL     1     -42.430 -54.912  15.063  1.00  0.00     0.000 C 
HETATM   21  C   UNL     1     -43.798 -54.346  14.666  1.00  0.00     0.000 C 
HETATM   22  C   UNL     1     -44.113 -54.407  13.171  1.00  0.00     0.002 C 
HETATM   23  C   UNL     1     -43.941 -53.083  12.423  1.00  0.00     0.025 C 
ENDBRANCH   3  16
TORSDOF 4
ENDMDL
MODEL 6
REMARK VINA RESULT:      -5.5      4.613      6.540
REMARK  4 active torsions:
REMARK  status: ('A' for Active; 'I' for Inactive)
REMARK    1  A    between atoms: S_2  and  C_4 
REMARK    2  A    between atoms: N_10  and  C_11 
REMARK    3  A    between atoms: C_11  and  C_12 
REMARK       I    between atoms: C_12  and  N_14 
REMARK    4  A    between atoms: N_14  and  C_15 
ROOT
HETATM    1  C   UNL     1     -40.032 -46.809  11.615  1.00  0.00     0.236 C 
HETATM    2  O   UNL     1     -40.275 -46.746  12.818  1.00  0.00    -0.272 OA
HETATM    3  N   UNL     1     -39.540 -47.956  11.013  1.00  0.00    -0.355 N 
HETATM    4  H   UNL     1     -39.541 -48.035  10.004  1.00  0.00     0.162 HD
ENDROOT
BRANCH   1   5
HETATM    5  C   UNL     1     -40.213 -45.620  10.687  1.00  0.00     0.234 C 
BRANCH   5   6
HETATM    6  N   UNL     1     -41.606 -45.242  10.598  1.00  0.00    -0.311 N 
HETATM    7  C   UNL     1     -42.219 -44.091  11.023  1.00  0.00     0.192 A 
HETATM    8  N   UNL     1     -43.454 -44.077  10.560  1.00  0.00    -0.277 N 
HETATM    9  N   UNL     1     -43.675 -45.254   9.888  1.00  0.00    -0.294 N 
ATOM     10  HN  UNL     1     -44.129 -43.321  10.681  1.00  0.00     0.189 HD
HETATM   11  C   UNL     1     -42.557 -45.937   9.908  1.00  0.00     0.202 A 
ATOM     12  HN  UNL     1     -44.551 -45.545   9.453  1.00  0.00     0.187 HD
BRANCH   7  13
HETATM   13  S   UNL     1     -41.543 -42.813  11.976  1.00  0.00     0.081 S 
HETATM   14  C   UNL     1     -43.062 -41.981  12.463  1.00  0.00     0.136 C 
HETATM   15  O   UNL     1     -40.860 -43.443  13.154  1.00  0.00    -0.250 OA
ENDBRANCH   7  13
ENDBRANCH   5   6
ENDBRANCH   1   5
BRANCH   3  16
HETATM   16  C   UNL     1     -39.341 -49.184  11.791  1.00  0.00     0.084 C 
HETATM   17  C   UNL     1     -37.921 -49.719  11.564  1.00  0.00     0.025 C 
HETATM   18  C   UNL     1     -37.441 -50.833  12.503  1.00  0.00     0.002 C 
HETATM   19  C   UNL     1     -37.832 -50.671  13.974  1.00  0.00     0.000 C 
HETATM   20  C   UNL     1     -39.029 -51.516  14.423  1.00  0.00     0.000 C 
HETATM   21  C   UNL     1     -40.402 -51.183  13.832  1.00  0.00     0.000 C 
HETATM   22  C   UNL     1     -40.539 -51.441  12.330  1.00  0.00     0.002 C 
HETATM   23  C   UNL     1     -40.447 -50.191  11.452  1.00  0.00     0.025 C 
ENDBRANCH   3  16
TORSDOF 4
ENDMDL
MODEL 7
REMARK VINA RESULT:      -5.4      2.126      3.296
REMARK  4 active torsions:
REMARK  status: ('A' for Active; 'I' for Inactive)
REMARK    1  A    between atoms: S_2  and  C_4 
REMARK    2  A    between atoms: N_10  and  C_11 
REMARK    3  A    between atoms: C_11  and  C_12 
REMARK       I    between atoms: C_12  and  N_14 
REMARK    4  A    between atoms: N_14  and  C_15 
ROOT
HETATM    1  C   UNL     1     -42.515 -50.134  14.045  1.00  0.00     0.236 C 
HETATM    2  O   UNL     1     -41.971 -50.668  15.008  1.00  0.00    -0.272 OA
HETATM    3  N   UNL     1     -43.651 -50.656  13.446  1.00  0.00    -0.355 N 
HETATM    4  H   UNL     1     -44.180 -50.093  12.793  1.00  0.00     0.162 HD
ENDROOT
BRANCH   1   5
HETATM    5  C   UNL     1     -41.968 -48.873  13.399  1.00  0.00     0.234 C 
BRANCH   5   6
HETATM    6  N   UNL     1     -41.625 -49.109  12.014  1.00  0.00    -0.311 N 
HETATM    7  C   UNL     1     -42.033 -48.432  10.894  1.00  0.00     0.192 A 
HETATM    8  N   UNL     1     -41.322 -48.851   9.865  1.00  0.00    -0.277 N 
HETATM    9  N   UNL     1     -40.493 -49.858  10.298  1.00  0.00    -0.294 N 
ATOM     10  HN  UNL     1     -41.378 -48.490   8.913  1.00  0.00     0.189 HD
HETATM   11  C   UNL     1     -40.676 -49.993  11.589  1.00  0.00     0.202 A 
ATOM     12  HN  UNL     1     -39.851 -50.401   9.721  1.00  0.00     0.187 HD
BRANCH   7  13
HETATM   13  S   UNL     1     -43.244 -47.199  10.776  1.00  0.00     0.081 S 
HETATM   14  C   UNL     1     -42.199 -45.812  10.305  1.00  0.00     0.136 C 
HETATM   15  O   UNL     1     -44.175 -47.586   9.667  1.00  0.00    -0.250 OA
ENDBRANCH   7  13
ENDBRANCH   5   6
ENDBRANCH   1   5
BRANCH   3  16
HETATM   16  C   UNL     1     -44.296 -51.859  13.986  1.00  0.00     0.084 C 
HETATM   17  C   UNL     1     -44.991 -51.526  15.313  1.00  0.00     0.025 C 
HETATM   18  C   UNL     1     -45.946 -52.583  15.881  1.00  0.00     0.002 C 
HETATM   19  C   UNL     1     -46.837 -53.287  14.855  1.00  0.00     0.000 C 
HETATM   20  C   UNL     1     -46.365 -54.683  14.437  1.00  0.00     0.000 C 
HETATM   21  C   UNL     1     -45.058 -54.789  13.645  1.00  0.00     0.000 C 
HETATM   22  C   UNL     1     -43.801 -54.386  14.417  1.00  0.00     0.002 C 
HETATM   23  C   UNL     1     -43.265 -52.990  14.090  1.00  0.00     0.025 C 
ENDBRANCH   3  16
TORSDOF 4
ENDMDL
MODEL 8
REMARK VINA RESULT:      -5.3      3.046      4.338
REMARK  4 active torsions:
REMARK  status: ('A' for Active; 'I' for Inactive)
REMARK    1  A    between atoms: S_2  and  C_4 
REMARK    2  A    between atoms: N_10  and  C_11 
REMARK    3  A    between atoms: C_11  and  C_12 
REMARK       I    between atoms: C_12  and  N_14 
REMARK    4  A    between atoms: N_14  and  C_15 
ROOT
HETATM    1  C   UNL     1     -40.173 -50.124  13.519  1.00  0.00     0.236 C 
HETATM    2  O   UNL     1     -41.117 -50.010  14.297  1.00  0.00    -0.272 OA
HETATM    3  N   UNL     1     -39.610 -51.351  13.204  1.00  0.00    -0.355 N 
HETATM    4  H   UNL     1     -38.976 -51.427  12.420  1.00  0.00     0.162 HD
ENDROOT
BRANCH   1   5
HETATM    5  C   UNL     1     -39.514 -48.925  12.860  1.00  0.00     0.234 C 
BRANCH   5   6
HETATM    6  N   UNL     1     -40.342 -48.398  11.798  1.00  0.00    -0.311 N 
HETATM    7  C   UNL     1     -40.488 -47.101  11.377  1.00  0.00     0.192 A 
HETATM    8  N   UNL     1     -41.181 -47.098  10.255  1.00  0.00    -0.277 N 
HETATM    9  N   UNL     1     -41.552 -48.392   9.975  1.00  0.00    -0.294 N 
ATOM     10  HN  UNL     1     -41.403 -46.277   9.692  1.00  0.00     0.189 HD
HETATM   11  C   UNL     1     -41.032 -49.160  10.901  1.00  0.00     0.202 A 
ATOM     12  HN  UNL     1     -42.127 -48.698   9.191  1.00  0.00     0.187 HD
BRANCH   7  13
HETATM   13  S   UNL     1     -39.868 -45.664  12.118  1.00  0.00     0.081 S 
HETATM   14  C   UNL     1     -40.174 -44.496  10.785  1.00  0.00     0.136 C 
HETATM   15  O   UNL     1     -40.724 -45.369  13.314  1.00  0.00    -0.250 OA
ENDBRANCH   7  13
ENDBRANCH   5   6
ENDBRANCH   1   5
BRANCH   3  16
HETATM   16  C   UNL     1     -40.167 -52.593  13.754  1.00  0.00     0.084 C 
HETATM   17  C   UNL     1     -39.030 -53.559  14.110  1.00  0.00     0.025 C 
HETATM   18  C   UNL     1     -39.401 -54.789  14.948  1.00  0.00     0.002 C 
HETATM   19  C   UNL     1     -40.401 -54.540  16.079  1.00  0.00     0.000 C 
HETATM   20  C   UNL     1     -41.843 -54.955  15.771  1.00  0.00     0.000 C 
HETATM   21  C   UNL     1     -42.596 -54.176  14.688  1.00  0.00     0.000 C 
HETATM   22  C   UNL     1     -42.044 -54.342  13.272  1.00  0.00     0.002 C 
HETATM   23  C   UNL     1     -41.192 -53.173  12.772  1.00  0.00     0.025 C 
ENDBRANCH   3  16
TORSDOF 4
ENDMDL
MODEL 9
REMARK VINA RESULT:      -5.3      4.424      6.112
REMARK  4 active torsions:
REMARK  status: ('A' for Active; 'I' for Inactive)
REMARK    1  A    between atoms: S_2  and  C_4 
REMARK    2  A    between atoms: N_10  and  C_11 
REMARK    3  A    between atoms: C_11  and  C_12 
REMARK       I    between atoms: C_12  and  N_14 
REMARK    4  A    between atoms: N_14  and  C_15 
ROOT
HETATM    1  C   UNL     1     -39.690 -47.097  11.586  1.00  0.00     0.236 C 
HETATM    2  O   UNL     1     -39.388 -46.835  12.748  1.00  0.00    -0.272 OA
HETATM    3  N   UNL     1     -39.667 -48.388  11.083  1.00  0.00    -0.355 N 
HETATM    4  H   UNL     1     -40.107 -48.589  10.194  1.00  0.00     0.162 HD
ENDROOT
BRANCH   1   5
HETATM    5  C   UNL     1     -40.077 -46.021  10.586  1.00  0.00     0.234 C 
BRANCH   5   6
HETATM    6  N   UNL     1     -41.137 -45.189  11.107  1.00  0.00    -0.311 N 
HETATM    7  C   UNL     1     -42.484 -45.438  11.166  1.00  0.00     0.192 A 
HETATM    8  N   UNL     1     -43.055 -44.502  11.899  1.00  0.00    -0.277 N 
HETATM    9  N   UNL     1     -42.090 -43.595  12.266  1.00  0.00    -0.294 N 
ATOM     10  HN  UNL     1     -44.043 -44.459  12.151  1.00  0.00     0.189 HD
HETATM   11  C   UNL     1     -40.945 -44.025  11.795  1.00  0.00     0.202 A 
ATOM     12  HN  UNL     1     -42.237 -42.742  12.805  1.00  0.00     0.187 HD
BRANCH   7  13
HETATM   13  S   UNL     1     -43.356 -46.755  10.454  1.00  0.00     0.081 S 
HETATM   14  C   UNL     1     -43.263 -46.262   8.726  1.00  0.00     0.136 C 
HETATM   15  O   UNL     1     -42.571 -48.006  10.711  1.00  0.00    -0.250 OA
ENDBRANCH   7  13
ENDBRANCH   5   6
ENDBRANCH   1   5
BRANCH   3  16
HETATM   16  C   UNL     1     -39.333 -49.524  11.950  1.00  0.00     0.084 C 
HETATM   17  C   UNL     1     -37.903 -49.997  11.659  1.00  0.00     0.025 C 
HETATM   18  C   UNL     1     -37.284 -50.988  12.653  1.00  0.00     0.002 C 
HETATM   19  C   UNL     1     -37.574 -50.710  14.130  1.00  0.00     0.000 C 
HETATM   20  C   UNL     1     -38.678 -51.576  14.747  1.00  0.00     0.000 C 
HETATM   21  C   UNL     1     -40.110 -51.378  14.240  1.00  0.00     0.000 C 
HETATM   22  C   UNL     1     -40.341 -51.784  12.783  1.00  0.00     0.002 C 
HETATM   23  C   UNL     1     -40.395 -50.619  11.791  1.00  0.00     0.025 C 
ENDBRANCH   3  16
TORSDOF 4
ENDMDL
