MODEL 1
REMARK VINA RESULT:      -6.2      0.000      0.000
REMARK  8 active torsions:
REMARK  status: ('A' for Active; 'I' for Inactive)
REMARK    1  A    between atoms: C_7  and  C_8 
REMARK    2  A    between atoms: C_8  and  O_9 
REMARK    3  A    between atoms: C_8  and  C_10 
REMARK    4  A    between atoms: C_10  and  N_11 
REMARK    5  A    between atoms: N_14  and  C_15 
REMARK    6  A    between atoms: C_15  and  C_16 
REMARK    7  A    between atoms: N_20  and  C_21 
REMARK    8  A    between atoms: C_21  and  C_22 
ROOT
HETATM    1  N   UNL     1     -41.772 -50.900  13.077  1.00  0.00    -0.248 N 
HETATM    2  C   UNL     1     -43.134 -50.919  13.288  1.00  0.00     0.337 C 
HETATM    3  O   UNL     1     -43.808 -49.893  13.146  1.00  0.00    -0.246 OA
HETATM    4  N   UNL     1     -43.700 -52.134  13.604  1.00  0.00    -0.247 N 
HETATM    5  C   UNL     1     -42.994 -53.319  13.628  1.00  0.00     0.337 C 
HETATM    6  O   UNL     1     -43.520 -54.390  13.943  1.00  0.00    -0.246 OA
HETATM    7  N   UNL     1     -41.658 -53.239  13.273  1.00  0.00    -0.247 N 
HETATM    8  C   UNL     1     -41.035 -52.059  12.924  1.00  0.00     0.337 C 
HETATM    9  O   UNL     1     -39.886 -52.043  12.477  1.00  0.00    -0.246 OA
ENDROOT
BRANCH   1  10
HETATM   10  C   UNL     1     -41.157 -49.614  12.681  1.00  0.00     0.175 C 
BRANCH  10  11
HETATM   11  C   UNL     1     -41.341 -49.226  11.188  1.00  0.00     0.170 C 
BRANCH  11  12
HETATM   12  C   UNL     1     -41.273 -47.724  10.925  1.00  0.00    -0.022 A 
HETATM   13  C   UNL     1     -42.376 -46.933  10.517  1.00  0.00    -0.053 A 
HETATM   14  C   UNL     1     -43.749 -47.490  10.251  1.00  0.00     0.049 C 
HETATM   15  C   UNL     1     -42.207 -45.544  10.354  1.00  0.00     0.007 A 
HETATM   16  C   UNL     1     -40.980 -44.930  10.595  1.00  0.00     0.001 A 
HETATM   17  C   UNL     1     -39.897 -45.697  10.998  1.00  0.00     0.001 A 
HETATM   18  C   UNL     1     -40.041 -47.076  11.161  1.00  0.00     0.010 A 
ENDBRANCH  11  12
BRANCH  11  19
HETATM   19  O   UNL     1     -40.425 -49.840  10.282  1.00  0.00    -0.389 OA
HETATM   20  H   UNL     1     -39.626 -49.281  10.216  1.00  0.00     0.210 HD
ENDBRANCH  11  19
ENDBRANCH  10  11
ENDBRANCH   1  10
BRANCH   4  21
HETATM   21  C   UNL     1     -45.139 -52.184  13.838  1.00  0.00     0.165 C 
BRANCH  21  22
HETATM   22  C   UNL     1     -45.869 -52.504  12.564  1.00  0.00    -0.017 C 
HETATM   23  C   UNL     1     -46.807 -51.727  12.004  1.00  0.00     0.008 C 
ENDBRANCH  21  22
ENDBRANCH   4  21
BRANCH   7  24
HETATM   24  C   UNL     1     -40.855 -54.459  13.303  1.00  0.00     0.165 C 
BRANCH  24  25
HETATM   25  C   UNL     1     -40.213 -54.671  14.648  1.00  0.00    -0.017 C 
HETATM   26  C   UNL     1     -38.907 -54.905  14.828  1.00  0.00     0.008 C 
ENDBRANCH  24  25
ENDBRANCH   7  24
TORSDOF 8
ENDMDL
MODEL 2
REMARK VINA RESULT:      -6.1      0.545      3.699
REMARK  8 active torsions:
REMARK  status: ('A' for Active; 'I' for Inactive)
REMARK    1  A    between atoms: C_7  and  C_8 
REMARK    2  A    between atoms: C_8  and  O_9 
REMARK    3  A    between atoms: C_8  and  C_10 
REMARK    4  A    between atoms: C_10  and  N_11 
REMARK    5  A    between atoms: N_14  and  C_15 
REMARK    6  A    between atoms: C_15  and  C_16 
REMARK    7  A    between atoms: N_20  and  C_21 
REMARK    8  A    between atoms: C_21  and  C_22 
ROOT
HETATM    1  N   UNL     1     -41.647 -50.976  13.016  1.00  0.00    -0.248 N 
HETATM    2  C   UNL     1     -40.806 -52.064  12.920  1.00  0.00     0.337 C 
HETATM    3  O   UNL     1     -39.638 -51.926  12.540  1.00  0.00    -0.246 OA
HETATM    4  N   UNL     1     -41.312 -53.282  13.315  1.00  0.00    -0.247 N 
HETATM    5  C   UNL     1     -42.563 -53.440  13.877  1.00  0.00     0.337 C 
HETATM    6  O   UNL     1     -43.003 -54.548  14.197  1.00  0.00    -0.246 OA
HETATM    7  N   UNL     1     -43.296 -52.281  14.067  1.00  0.00    -0.247 N 
HETATM    8  C   UNL     1     -42.839 -51.028  13.713  1.00  0.00     0.337 C 
HETATM    9  O   UNL     1     -43.454 -50.005  14.024  1.00  0.00    -0.246 OA
ENDROOT
BRANCH   1  10
HETATM   10  C   UNL     1     -41.100 -49.652  12.649  1.00  0.00     0.175 C 
BRANCH  10  11
HETATM   11  C   UNL     1     -41.318 -49.233  11.169  1.00  0.00     0.170 C 
BRANCH  11  12
HETATM   12  C   UNL     1     -41.241 -47.727  10.933  1.00  0.00    -0.022 A 
HETATM   13  C   UNL     1     -42.310 -46.941  10.433  1.00  0.00    -0.053 A 
HETATM   14  C   UNL     1     -43.645 -47.507  10.030  1.00  0.00     0.049 C 
HETATM   15  C   UNL     1     -42.140 -45.548  10.304  1.00  0.00     0.007 A 
HETATM   16  C   UNL     1     -40.949 -44.926  10.669  1.00  0.00     0.001 A 
HETATM   17  C   UNL     1     -39.900 -45.688  11.162  1.00  0.00     0.001 A 
HETATM   18  C   UNL     1     -40.044 -47.070  11.293  1.00  0.00     0.010 A 
ENDBRANCH  11  12
BRANCH  11  19
HETATM   19  O   UNL     1     -40.432 -49.839  10.229  1.00  0.00    -0.389 OA
HETATM   20  H   UNL     1     -39.564 -49.976  10.658  1.00  0.00     0.210 HD
ENDBRANCH  11  19
ENDBRANCH  10  11
ENDBRANCH   1  10
BRANCH   4  21
HETATM   21  C   UNL     1     -40.447 -54.452  13.218  1.00  0.00     0.165 C 
BRANCH  21  22
HETATM   22  C   UNL     1     -39.473 -54.483  14.363  1.00  0.00    -0.017 C 
HETATM   23  C   UNL     1     -39.689 -55.096  15.536  1.00  0.00     0.008 C 
ENDBRANCH  21  22
ENDBRANCH   4  21
BRANCH   7  24
HETATM   24  C   UNL     1     -44.636 -52.390  14.636  1.00  0.00     0.165 C 
BRANCH  24  25
HETATM   25  C   UNL     1     -45.680 -52.591  13.570  1.00  0.00    -0.017 C 
HETATM   26  C   UNL     1     -46.480 -51.621  13.109  1.00  0.00     0.008 C 
ENDBRANCH  24  25
ENDBRANCH   7  24
TORSDOF 8
ENDMDL
MODEL 3
REMARK VINA RESULT:      -5.9      2.438      6.999
REMARK  8 active torsions:
REMARK  status: ('A' for Active; 'I' for Inactive)
REMARK    1  A    between atoms: C_7  and  C_8 
REMARK    2  A    between atoms: C_8  and  O_9 
REMARK    3  A    between atoms: C_8  and  C_10 
REMARK    4  A    between atoms: C_10  and  N_11 
REMARK    5  A    between atoms: N_14  and  C_15 
REMARK    6  A    between atoms: C_15  and  C_16 
REMARK    7  A    between atoms: N_20  and  C_21 
REMARK    8  A    between atoms: C_21  and  C_22 
ROOT
HETATM    1  N   UNL     1     -41.373 -48.387  11.927  1.00  0.00    -0.248 N 
HETATM    2  C   UNL     1     -42.658 -48.231  11.452  1.00  0.00     0.337 C 
HETATM    3  O   UNL     1     -43.556 -49.006  11.799  1.00  0.00    -0.246 OA
HETATM    4  N   UNL     1     -42.894 -47.152  10.630  1.00  0.00    -0.247 N 
HETATM    5  C   UNL     1     -41.944 -46.193  10.343  1.00  0.00     0.337 C 
HETATM    6  O   UNL     1     -42.174 -45.251   9.579  1.00  0.00    -0.246 OA
HETATM    7  N   UNL     1     -40.718 -46.344  10.966  1.00  0.00    -0.247 N 
HETATM    8  C   UNL     1     -40.422 -47.390  11.817  1.00  0.00     0.337 C 
HETATM    9  O   UNL     1     -39.373 -47.419  12.465  1.00  0.00    -0.246 OA
ENDROOT
BRANCH   1  10
HETATM   10  C   UNL     1     -41.117 -49.508  12.857  1.00  0.00     0.175 C 
BRANCH  10  11
HETATM   11  C   UNL     1     -40.543 -50.794  12.201  1.00  0.00     0.170 C 
BRANCH  11  12
HETATM   12  C   UNL     1     -41.140 -52.088  12.747  1.00  0.00    -0.022 A 
HETATM   13  C   UNL     1     -40.463 -52.974  13.621  1.00  0.00    -0.053 A 
HETATM   14  C   UNL     1     -39.046 -52.768  14.087  1.00  0.00     0.049 C 
HETATM   15  C   UNL     1     -41.134 -54.116  14.103  1.00  0.00     0.007 A 
HETATM   16  C   UNL     1     -42.453 -54.385  13.747  1.00  0.00     0.001 A 
HETATM   17  C   UNL     1     -43.124 -53.521  12.895  1.00  0.00     0.001 A 
HETATM   18  C   UNL     1     -42.476 -52.387  12.402  1.00  0.00     0.010 A 
ENDBRANCH  11  12
BRANCH  11  19
HETATM   19  O   UNL     1     -40.663 -50.857  10.780  1.00  0.00    -0.389 OA
HETATM   20  H   UNL     1     -41.539 -51.226  10.555  1.00  0.00     0.210 HD
ENDBRANCH  11  19
ENDBRANCH  10  11
ENDBRANCH   1  10
BRANCH   4  21
HETATM   21  C   UNL     1     -44.242 -46.966  10.107  1.00  0.00     0.165 C 
BRANCH  21  22
HETATM   22  C   UNL     1     -44.435 -47.766   8.850  1.00  0.00    -0.017 C 
HETATM   23  C   UNL     1     -43.584 -47.783   7.815  1.00  0.00     0.008 C 
ENDBRANCH  21  22
ENDBRANCH   4  21
BRANCH   7  24
HETATM   24  C   UNL     1     -39.667 -45.372  10.681  1.00  0.00     0.165 C 
BRANCH  24  25
HETATM   25  C   UNL     1     -39.813 -44.130  11.519  1.00  0.00    -0.017 C 
HETATM   26  C   UNL     1     -39.266 -43.974  12.732  1.00  0.00     0.008 C 
ENDBRANCH  24  25
ENDBRANCH   7  24
TORSDOF 8
ENDMDL
MODEL 4
REMARK VINA RESULT:      -5.9      2.746      3.439
REMARK  8 active torsions:
REMARK  status: ('A' for Active; 'I' for Inactive)
REMARK    1  A    between atoms: C_7  and  C_8 
REMARK    2  A    between atoms: C_8  and  O_9 
REMARK    3  A    between atoms: C_8  and  C_10 
REMARK    4  A    between atoms: C_10  and  N_11 
REMARK    5  A    between atoms: N_14  and  C_15 
REMARK    6  A    between atoms: C_15  and  C_16 
REMARK    7  A    between atoms: N_20  and  C_21 
REMARK    8  A    between atoms: C_21  and  C_22 
ROOT
HETATM    1  N   UNL     1     -42.024 -53.077  12.985  1.00  0.00    -0.248 N 
HETATM    2  C   UNL     1     -43.322 -53.541  13.012  1.00  0.00     0.337 C 
HETATM    3  O   UNL     1     -44.137 -53.185  12.154  1.00  0.00    -0.246 OA
HETATM    4  N   UNL     1     -43.640 -54.449  13.997  1.00  0.00    -0.247 N 
HETATM    5  C   UNL     1     -42.714 -54.971  14.878  1.00  0.00     0.337 C 
HETATM    6  O   UNL     1     -43.032 -55.763  15.770  1.00  0.00    -0.246 OA
HETATM    7  N   UNL     1     -41.405 -54.560  14.700  1.00  0.00    -0.247 N 
HETATM    8  C   UNL     1     -41.015 -53.670  13.720  1.00  0.00     0.337 C 
HETATM    9  O   UNL     1     -39.825 -53.434  13.498  1.00  0.00    -0.246 OA
ENDROOT
BRANCH   1  10
HETATM   10  C   UNL     1     -41.652 -52.145  11.898  1.00  0.00     0.175 C 
BRANCH  10  11
HETATM   11  C   UNL     1     -41.625 -50.643  12.296  1.00  0.00     0.170 C 
BRANCH  11  12
HETATM   12  C   UNL     1     -40.241 -50.131  12.687  1.00  0.00    -0.022 A 
HETATM   13  C   UNL     1     -39.796 -49.975  14.024  1.00  0.00    -0.053 A 
HETATM   14  C   UNL     1     -40.653 -50.256  15.228  1.00  0.00     0.049 C 
HETATM   15  C   UNL     1     -38.477 -49.541  14.265  1.00  0.00     0.007 A 
HETATM   16  C   UNL     1     -37.598 -49.274  13.218  1.00  0.00     0.001 A 
HETATM   17  C   UNL     1     -38.026 -49.428  11.908  1.00  0.00     0.001 A 
HETATM   18  C   UNL     1     -39.330 -49.851  11.646  1.00  0.00     0.010 A 
ENDBRANCH  11  12
BRANCH  11  19
HETATM   19  O   UNL     1     -42.128 -49.744  11.309  1.00  0.00    -0.389 OA
HETATM   20  H   UNL     1     -42.444 -48.933  11.755  1.00  0.00     0.210 HD
ENDBRANCH  11  19
ENDBRANCH  10  11
ENDBRANCH   1  10
BRANCH   4  21
HETATM   21  C   UNL     1     -45.007 -54.953  14.055  1.00  0.00     0.165 C 
BRANCH  21  22
HETATM   22  C   UNL     1     -45.836 -54.119  14.993  1.00  0.00    -0.017 C 
HETATM   23  C   UNL     1     -46.748 -53.215  14.610  1.00  0.00     0.008 C 
ENDBRANCH  21  22
ENDBRANCH   4  21
BRANCH   7  24
HETATM   24  C   UNL     1     -40.386 -55.062  15.618  1.00  0.00     0.165 C 
BRANCH  24  25
HETATM   25  C   UNL     1     -40.148 -54.112  16.762  1.00  0.00    -0.017 C 
HETATM   26  C   UNL     1     -39.012 -53.427  16.944  1.00  0.00     0.008 C 
ENDBRANCH  24  25
ENDBRANCH   7  24
TORSDOF 8
ENDMDL
MODEL 5
REMARK VINA RESULT:      -5.8      4.257      7.566
REMARK  8 active torsions:
REMARK  status: ('A' for Active; 'I' for Inactive)
REMARK    1  A    between atoms: C_7  and  C_8 
REMARK    2  A    between atoms: C_8  and  O_9 
REMARK    3  A    between atoms: C_8  and  C_10 
REMARK    4  A    between atoms: C_10  and  N_11 
REMARK    5  A    between atoms: N_14  and  C_15 
REMARK    6  A    between atoms: C_15  and  C_16 
REMARK    7  A    between atoms: N_20  and  C_21 
REMARK    8  A    between atoms: C_21  and  C_22 
ROOT
HETATM    1  N   UNL     1     -41.742 -46.890  11.742  1.00  0.00    -0.248 N 
HETATM    2  C   UNL     1     -41.763 -45.568  12.134  1.00  0.00     0.337 C 
HETATM    3  O   UNL     1     -41.133 -45.196  13.130  1.00  0.00    -0.246 OA
HETATM    4  N   UNL     1     -42.464 -44.691  11.337  1.00  0.00    -0.247 N 
HETATM    5  C   UNL     1     -43.055 -45.054  10.144  1.00  0.00     0.337 C 
HETATM    6  O   UNL     1     -43.703 -44.254   9.462  1.00  0.00    -0.246 OA
HETATM    7  N   UNL     1     -42.876 -46.369   9.750  1.00  0.00    -0.247 N 
HETATM    8  C   UNL     1     -42.167 -47.293  10.491  1.00  0.00     0.337 C 
HETATM    9  O   UNL     1     -41.906 -48.413  10.046  1.00  0.00    -0.246 OA
ENDROOT
BRANCH   1  10
HETATM   10  C   UNL     1     -40.946 -47.834  12.556  1.00  0.00     0.175 C 
BRANCH  10  11
HETATM   11  C   UNL     1     -39.441 -47.924  12.182  1.00  0.00     0.170 C 
BRANCH  11  12
HETATM   12  C   UNL     1     -38.553 -48.448  13.307  1.00  0.00    -0.022 A 
HETATM   13  C   UNL     1     -38.064 -47.655  14.375  1.00  0.00    -0.053 A 
HETATM   14  C   UNL     1     -38.329 -46.179  14.508  1.00  0.00     0.049 C 
HETATM   15  C   UNL     1     -37.293 -48.260  15.387  1.00  0.00     0.007 A 
HETATM   16  C   UNL     1     -37.009 -49.623  15.366  1.00  0.00     0.001 A 
HETATM   17  C   UNL     1     -37.487 -50.407  14.325  1.00  0.00     0.001 A 
HETATM   18  C   UNL     1     -38.249 -49.827  13.309  1.00  0.00     0.010 A 
ENDBRANCH  11  12
BRANCH  11  19
HETATM   19  O   UNL     1     -39.147 -48.711  11.029  1.00  0.00    -0.389 OA
HETATM   20  H   UNL     1     -39.822 -49.414  10.947  1.00  0.00     0.210 HD
ENDBRANCH  11  19
ENDBRANCH  10  11
ENDBRANCH   1  10
BRANCH   4  21
HETATM   21  C   UNL     1     -42.508 -43.288  11.729  1.00  0.00     0.165 C 
BRANCH  21  22
HETATM   22  C   UNL     1     -41.277 -42.568  11.251  1.00  0.00    -0.017 C 
HETATM   23  C   UNL     1     -40.503 -41.786  12.014  1.00  0.00     0.008 C 
ENDBRANCH  21  22
ENDBRANCH   4  21
BRANCH   7  24
HETATM   24  C   UNL     1     -43.499 -46.816   8.508  1.00  0.00     0.165 C 
BRANCH  24  25
HETATM   25  C   UNL     1     -44.779 -47.567   8.763  1.00  0.00    -0.017 C 
HETATM   26  C   UNL     1     -45.951 -46.981   9.037  1.00  0.00     0.008 C 
ENDBRANCH  24  25
ENDBRANCH   7  24
TORSDOF 8
ENDMDL
MODEL 6
REMARK VINA RESULT:      -5.8      2.562      6.423
REMARK  8 active torsions:
REMARK  status: ('A' for Active; 'I' for Inactive)
REMARK    1  A    between atoms: C_7  and  C_8 
REMARK    2  A    between atoms: C_8  and  O_9 
REMARK    3  A    between atoms: C_8  and  C_10 
REMARK    4  A    between atoms: C_10  and  N_11 
REMARK    5  A    between atoms: N_14  and  C_15 
REMARK    6  A    between atoms: C_15  and  C_16 
REMARK    7  A    between atoms: N_20  and  C_21 
REMARK    8  A    between atoms: C_21  and  C_22 
ROOT
HETATM    1  N   UNL     1     -40.994 -50.824  12.485  1.00  0.00    -0.248 N 
HETATM    2  C   UNL     1     -41.968 -50.028  13.052  1.00  0.00     0.337 C 
HETATM    3  O   UNL     1     -43.152 -50.381  13.046  1.00  0.00    -0.246 OA
HETATM    4  N   UNL     1     -41.549 -48.867  13.661  1.00  0.00    -0.247 N 
HETATM    5  C   UNL     1     -40.221 -48.520  13.807  1.00  0.00     0.337 C 
HETATM    6  O   UNL     1     -39.874 -47.459  14.334  1.00  0.00    -0.246 OA
HETATM    7  N   UNL     1     -39.297 -49.436  13.333  1.00  0.00    -0.247 N 
HETATM    8  C   UNL     1     -39.648 -50.627  12.731  1.00  0.00     0.337 C 
HETATM    9  O   UNL     1     -38.806 -51.482  12.450  1.00  0.00    -0.246 OA
ENDROOT
BRANCH   1  10
HETATM   10  C   UNL     1     -41.421 -52.101  11.876  1.00  0.00     0.175 C 
BRANCH  10  11
HETATM   11  C   UNL     1     -41.275 -53.351  12.788  1.00  0.00     0.170 C 
BRANCH  11  12
HETATM   12  C   UNL     1     -42.604 -53.921  13.278  1.00  0.00    -0.022 A 
HETATM   13  C   UNL     1     -42.779 -54.591  14.514  1.00  0.00    -0.053 A 
HETATM   14  C   UNL     1     -41.660 -54.862  15.483  1.00  0.00     0.049 C 
HETATM   15  C   UNL     1     -44.066 -55.030  14.885  1.00  0.00     0.007 A 
HETATM   16  C   UNL     1     -45.171 -54.810  14.066  1.00  0.00     0.001 A 
HETATM   17  C   UNL     1     -45.008 -54.151  12.856  1.00  0.00     0.001 A 
HETATM   18  C   UNL     1     -43.741 -53.712  12.467  1.00  0.00     0.010 A 
ENDBRANCH  11  12
BRANCH  11  19
HETATM   19  O   UNL     1     -40.550 -54.439  12.217  1.00  0.00    -0.389 OA
HETATM   20  H   UNL     1     -40.518 -54.321  11.247  1.00  0.00     0.210 HD
ENDBRANCH  11  19
ENDBRANCH  10  11
ENDBRANCH   1  10
BRANCH   4  21
HETATM   21  C   UNL     1     -42.557 -48.002  14.264  1.00  0.00     0.165 C 
BRANCH  21  22
HETATM   22  C   UNL     1     -43.022 -46.969  13.276  1.00  0.00    -0.017 C 
HETATM   23  C   UNL     1     -42.780 -45.654  13.372  1.00  0.00     0.008 C 
ENDBRANCH  21  22
ENDBRANCH   4  21
BRANCH   7  24
HETATM   24  C   UNL     1     -37.877 -49.112  13.440  1.00  0.00     0.165 C 
BRANCH  24  25
HETATM   25  C   UNL     1     -37.304 -49.539  14.765  1.00  0.00    -0.017 C 
HETATM   26  C   UNL     1     -36.664 -48.717  15.606  1.00  0.00     0.008 C 
ENDBRANCH  24  25
ENDBRANCH   7  24
TORSDOF 8
ENDMDL
MODEL 7
REMARK VINA RESULT:      -5.7      2.436      7.292
REMARK  8 active torsions:
REMARK  status: ('A' for Active; 'I' for Inactive)
REMARK    1  A    between atoms: C_7  and  C_8 
REMARK    2  A    between atoms: C_8  and  O_9 
REMARK    3  A    between atoms: C_8  and  C_10 
REMARK    4  A    between atoms: C_10  and  N_11 
REMARK    5  A    between atoms: N_14  and  C_15 
REMARK    6  A    between atoms: C_15  and  C_16 
REMARK    7  A    between atoms: N_20  and  C_21 
REMARK    8  A    between atoms: C_21  and  C_22 
ROOT
HETATM    1  N   UNL     1     -40.945 -50.848  12.629  1.00  0.00    -0.248 N 
HETATM    2  C   UNL     1     -39.619 -50.474  12.691  1.00  0.00     0.337 C 
HETATM    3  O   UNL     1     -38.739 -51.187  12.197  1.00  0.00    -0.246 OA
HETATM    4  N   UNL     1     -39.340 -49.258  13.275  1.00  0.00    -0.247 N 
HETATM    5  C   UNL     1     -40.313 -48.380  13.705  1.00  0.00     0.337 C 
HETATM    6  O   UNL     1     -40.034 -47.308  14.252  1.00  0.00    -0.246 OA
HETATM    7  N   UNL     1     -41.623 -48.766  13.485  1.00  0.00    -0.247 N 
HETATM    8  C   UNL     1     -41.972 -49.960  12.886  1.00  0.00     0.337 C 
HETATM    9  O   UNL     1     -43.139 -50.210  12.576  1.00  0.00    -0.246 OA
ENDROOT
BRANCH   1  10
HETATM   10  C   UNL     1     -41.266 -52.123  11.954  1.00  0.00     0.175 C 
BRANCH  10  11
HETATM   11  C   UNL     1     -41.199 -53.385  12.858  1.00  0.00     0.170 C 
BRANCH  11  12
HETATM   12  C   UNL     1     -42.565 -53.900  13.305  1.00  0.00    -0.022 A 
HETATM   13  C   UNL     1     -42.801 -54.586  14.523  1.00  0.00    -0.053 A 
HETATM   14  C   UNL     1     -41.718 -54.931  15.510  1.00  0.00     0.049 C 
HETATM   15  C   UNL     1     -44.115 -54.970  14.856  1.00  0.00     0.007 A 
HETATM   16  C   UNL     1     -45.189 -54.680  14.018  1.00  0.00     0.001 A 
HETATM   17  C   UNL     1     -44.967 -54.006  12.826  1.00  0.00     0.001 A 
HETATM   18  C   UNL     1     -43.672 -53.621  12.475  1.00  0.00     0.010 A 
ENDBRANCH  11  12
BRANCH  11  19
HETATM   19  O   UNL     1     -40.507 -54.500  12.297  1.00  0.00    -0.389 OA
HETATM   20  H   UNL     1     -41.090 -54.935  11.643  1.00  0.00     0.210 HD
ENDBRANCH  11  19
ENDBRANCH  10  11
ENDBRANCH   1  10
BRANCH   4  21
HETATM   21  C   UNL     1     -37.945 -48.839  13.361  1.00  0.00     0.165 C 
BRANCH  21  22
HETATM   22  C   UNL     1     -37.426 -49.021  14.760  1.00  0.00    -0.017 C 
HETATM   23  C   UNL     1     -36.959 -50.174  15.259  1.00  0.00     0.008 C 
ENDBRANCH  21  22
ENDBRANCH   4  21
BRANCH   7  24
HETATM   24  C   UNL     1     -42.696 -47.887  13.941  1.00  0.00     0.165 C 
BRANCH  24  25
HETATM   25  C   UNL     1     -42.906 -46.729  13.001  1.00  0.00    -0.017 C 
HETATM   26  C   UNL     1     -43.050 -46.855  11.676  1.00  0.00     0.008 C 
ENDBRANCH  24  25
ENDBRANCH   7  24
TORSDOF 8
ENDMDL
MODEL 8
REMARK VINA RESULT:      -5.6      2.147      6.249
REMARK  8 active torsions:
REMARK  status: ('A' for Active; 'I' for Inactive)
REMARK    1  A    between atoms: C_7  and  C_8 
REMARK    2  A    between atoms: C_8  and  O_9 
REMARK    3  A    between atoms: C_8  and  C_10 
REMARK    4  A    between atoms: C_10  and  N_11 
REMARK    5  A    between atoms: N_14  and  C_15 
REMARK    6  A    between atoms: C_15  and  C_16 
REMARK    7  A    between atoms: N_20  and  C_21 
REMARK    8  A    between atoms: C_21  and  C_22 
ROOT
HETATM    1  N   UNL     1     -40.991 -51.188  13.937  1.00  0.00    -0.248 N 
HETATM    2  C   UNL     1     -41.710 -50.955  15.091  1.00  0.00     0.337 C 
HETATM    3  O   UNL     1     -41.655 -51.748  16.037  1.00  0.00    -0.246 OA
HETATM    4  N   UNL     1     -42.434 -49.786  15.150  1.00  0.00    -0.247 N 
HETATM    5  C   UNL     1     -42.398 -48.818  14.168  1.00  0.00     0.337 C 
HETATM    6  O   UNL     1     -43.080 -47.790  14.233  1.00  0.00    -0.246 OA
HETATM    7  N   UNL     1     -41.548 -49.062  13.103  1.00  0.00    -0.247 N 
HETATM    8  C   UNL     1     -40.779 -50.202  12.992  1.00  0.00     0.337 C 
HETATM    9  O   UNL     1     -39.929 -50.324  12.107  1.00  0.00    -0.246 OA
ENDROOT
BRANCH   1  10
HETATM   10  C   UNL     1     -40.163 -52.411  13.880  1.00  0.00     0.175 C 
BRANCH  10  11
HETATM   11  C   UNL     1     -40.736 -53.557  13.001  1.00  0.00     0.170 C 
BRANCH  11  12
HETATM   12  C   UNL     1     -42.213 -53.853  13.252  1.00  0.00    -0.022 A 
HETATM   13  C   UNL     1     -42.704 -54.583  14.362  1.00  0.00    -0.053 A 
HETATM   14  C   UNL     1     -41.821 -55.198  15.415  1.00  0.00     0.049 C 
HETATM   15  C   UNL     1     -44.095 -54.750  14.518  1.00  0.00     0.007 A 
HETATM   16  C   UNL     1     -44.997 -54.203  13.609  1.00  0.00     0.001 A 
HETATM   17  C   UNL     1     -44.523 -53.483  12.521  1.00  0.00     0.001 A 
HETATM   18  C   UNL     1     -43.149 -53.310  12.345  1.00  0.00     0.010 A 
ENDBRANCH  11  12
BRANCH  11  19
HETATM   19  O   UNL     1     -40.590 -53.375  11.593  1.00  0.00    -0.389 OA
HETATM   20  H   UNL     1     -40.393 -52.434  11.416  1.00  0.00     0.210 HD
ENDBRANCH  11  19
ENDBRANCH  10  11
ENDBRANCH   1  10
BRANCH   4  21
HETATM   21  C   UNL     1     -43.209 -49.516  16.356  1.00  0.00     0.165 C 
BRANCH  21  22
HETATM   22  C   UNL     1     -44.385 -50.449  16.446  1.00  0.00    -0.017 C 
HETATM   23  C   UNL     1     -45.161 -50.804  15.414  1.00  0.00     0.008 C 
ENDBRANCH  21  22
ENDBRANCH   4  21
BRANCH   7  24
HETATM   24  C   UNL     1     -41.487 -48.083  12.022  1.00  0.00     0.165 C 
BRANCH  24  25
HETATM   25  C   UNL     1     -42.533 -48.346  10.970  1.00  0.00    -0.017 C 
HETATM   26  C   UNL     1     -43.475 -47.464  10.613  1.00  0.00     0.008 C 
ENDBRANCH  24  25
ENDBRANCH   7  24
TORSDOF 8
ENDMDL
MODEL 9
REMARK VINA RESULT:      -5.6      2.115      6.071
REMARK  8 active torsions:
REMARK  status: ('A' for Active; 'I' for Inactive)
REMARK    1  A    between atoms: C_7  and  C_8 
REMARK    2  A    between atoms: C_8  and  O_9 
REMARK    3  A    between atoms: C_8  and  C_10 
REMARK    4  A    between atoms: C_10  and  N_11 
REMARK    5  A    between atoms: N_14  and  C_15 
REMARK    6  A    between atoms: C_15  and  C_16 
REMARK    7  A    between atoms: N_20  and  C_21 
REMARK    8  A    between atoms: C_21  and  C_22 
ROOT
HETATM    1  N   UNL     1     -41.366 -51.061  12.366  1.00  0.00    -0.248 N 
HETATM    2  C   UNL     1     -41.861 -49.775  12.405  1.00  0.00     0.337 C 
HETATM    3  O   UNL     1     -43.076 -49.565  12.325  1.00  0.00    -0.246 OA
HETATM    4  N   UNL     1     -40.949 -48.760  12.591  1.00  0.00    -0.247 N 
HETATM    5  C   UNL     1     -39.606 -48.977  12.826  1.00  0.00     0.337 C 
HETATM    6  O   UNL     1     -38.805 -48.048  12.961  1.00  0.00    -0.246 OA
HETATM    7  N   UNL     1     -39.209 -50.300  12.908  1.00  0.00    -0.247 N 
HETATM    8  C   UNL     1     -40.074 -51.364  12.753  1.00  0.00     0.337 C 
HETATM    9  O   UNL     1     -39.717 -52.524  12.972  1.00  0.00    -0.246 OA
ENDROOT
BRANCH   1  10
HETATM   10  C   UNL     1     -42.338 -52.166  12.225  1.00  0.00     0.175 C 
BRANCH  10  11
HETATM   11  C   UNL     1     -42.847 -52.775  13.561  1.00  0.00     0.170 C 
BRANCH  11  12
HETATM   12  C   UNL     1     -44.240 -52.301  13.968  1.00  0.00    -0.022 A 
HETATM   13  C   UNL     1     -44.576 -51.821  15.258  1.00  0.00    -0.053 A 
HETATM   14  C   UNL     1     -43.604 -51.762  16.406  1.00  0.00     0.049 C 
HETATM   15  C   UNL     1     -45.885 -51.361  15.505  1.00  0.00     0.007 A 
HETATM   16  C   UNL     1     -46.852 -51.357  14.503  1.00  0.00     0.001 A 
HETATM   17  C   UNL     1     -46.530 -51.821  13.236  1.00  0.00     0.001 A 
HETATM   18  C   UNL     1     -45.240 -52.286  12.972  1.00  0.00     0.010 A 
ENDBRANCH  11  12
BRANCH  11  19
HETATM   19  O   UNL     1     -42.871 -54.201  13.610  1.00  0.00    -0.389 OA
HETATM   20  H   UNL     1     -41.952 -54.532  13.575  1.00  0.00     0.210 HD
ENDBRANCH  11  19
ENDBRANCH  10  11
ENDBRANCH   1  10
BRANCH   4  21
HETATM   21  C   UNL     1     -41.443 -47.389  12.630  1.00  0.00     0.165 C 
BRANCH  21  22
HETATM   22  C   UNL     1     -41.454 -46.793  11.249  1.00  0.00    -0.017 C 
HETATM   23  C   UNL     1     -40.561 -45.905  10.792  1.00  0.00     0.008 C 
ENDBRANCH  21  22
ENDBRANCH   4  21
BRANCH   7  24
HETATM   24  C   UNL     1     -37.795 -50.590  13.131  1.00  0.00     0.165 C 
BRANCH  24  25
HETATM   25  C   UNL     1     -37.086 -50.936  11.849  1.00  0.00    -0.017 C 
HETATM   26  C   UNL     1     -37.083 -50.157  10.759  1.00  0.00     0.008 C 
ENDBRANCH  24  25
ENDBRANCH   7  24
TORSDOF 8
ENDMDL
