MODEL 1
REMARK VINA RESULT:      -6.2      0.000      0.000
REMARK  3 active torsions:
REMARK  status: ('A' for Active; 'I' for Inactive)
REMARK    1  A    between atoms: C_2  and  C_4 
REMARK    2  A    between atoms: C_10  and  N_13 
REMARK    3  A    between atoms: C_18  and  C_19 
REMARK       I    between atoms: C_19  and  N_21 
ROOT
HETATM    1  C   UNL     1     -43.814 -47.197  10.228  1.00  0.00     0.086 A 
HETATM    2  N   UNL     1     -43.836 -48.356  10.904  1.00  0.00    -0.349 N 
ATOM      3  HN  UNL     1     -44.308 -49.183  10.537  1.00  0.00     0.167 HD
HETATM    4  C   UNL     1     -43.207 -48.370  12.086  1.00  0.00     0.010 A 
HETATM    5  C   UNL     1     -43.198 -49.653  12.859  1.00  0.00     0.068 C 
HETATM    6  C   UNL     1     -42.564 -47.256  12.587  1.00  0.00     0.073 A 
HETATM    7  C   UNL     1     -42.593 -46.080  11.853  1.00  0.00     0.107 A 
HETATM    8  N   UNL     1     -43.216 -46.068  10.666  1.00  0.00    -0.332 N 
ATOM      9  HN  UNL     1     -43.239 -45.219  10.102  1.00  0.00     0.168 HD
ENDROOT
BRANCH   7  10
HETATM   10  N   UNL     1     -41.936 -44.947  12.292  1.00  0.00    -0.350 N 
HETATM   11  C   UNL     1     -42.643 -43.969  13.147  1.00  0.00     0.151 C 
HETATM   12  C   UNL     1     -42.738 -42.596  12.468  1.00  0.00     0.187 C 
HETATM   13  O   UNL     1     -41.445 -42.108  12.102  1.00  0.00    -0.387 OA
HETATM   14  C   UNL     1     -40.846 -43.001  11.146  1.00  0.00     0.202 C 
HETATM   15  C   UNL     1     -40.647 -44.414  11.730  1.00  0.00     0.195 C 
BRANCH  15  16
HETATM   16  C   UNL     1     -39.887 -45.272  10.708  1.00  0.00     0.220 C 
HETATM   17  O   UNL     1     -39.529 -46.431  10.897  1.00  0.00    -0.278 OA
HETATM   18  N   UNL     1     -39.704 -44.701   9.472  1.00  0.00    -0.271 NA
HETATM   19  H   UNL     1     -39.548 -43.700   9.480  1.00  0.00     0.127 HD
HETATM   20  H   UNL     1     -39.065 -45.226   8.888  1.00  0.00     0.127 HD
ENDBRANCH  15  16
ENDBRANCH   7  10
BRANCH   1  21
HETATM   21  C   UNL     1     -44.495 -47.158   8.876  1.00  0.00     0.045 C 
HETATM   22  C   UNL     1     -43.628 -47.822   7.803  1.00  0.00     0.017 C 
HETATM   23  C   UNL     1     -45.868 -47.821   8.952  1.00  0.00     0.017 C 
ENDBRANCH   1  21
TORSDOF 3
ENDMDL
MODEL 2
REMARK VINA RESULT:      -6.1      1.460      2.444
REMARK  3 active torsions:
REMARK  status: ('A' for Active; 'I' for Inactive)
REMARK    1  A    between atoms: C_2  and  C_4 
REMARK    2  A    between atoms: C_10  and  N_13 
REMARK    3  A    between atoms: C_18  and  C_19 
REMARK       I    between atoms: C_19  and  N_21 
ROOT
HETATM    1  C   UNL     1     -43.478 -47.066   9.968  1.00  0.00     0.086 A 
HETATM    2  N   UNL     1     -43.670 -48.046  10.866  1.00  0.00    -0.349 N 
ATOM      3  HN  UNL     1     -44.340 -48.798  10.706  1.00  0.00     0.167 HD
HETATM    4  C   UNL     1     -42.935 -47.983  11.983  1.00  0.00     0.010 A 
HETATM    5  C   UNL     1     -43.112 -49.070  12.999  1.00  0.00     0.068 C 
HETATM    6  C   UNL     1     -42.024 -46.970  12.205  1.00  0.00     0.073 A 
HETATM    7  C   UNL     1     -41.884 -45.974  11.251  1.00  0.00     0.107 A 
HETATM    8  N   UNL     1     -42.615 -46.041  10.129  1.00  0.00    -0.332 N 
ATOM      9  HN  UNL     1     -42.520 -45.327   9.407  1.00  0.00     0.168 HD
ENDROOT
BRANCH   7  10
HETATM   10  N   UNL     1     -40.962 -44.958  11.408  1.00  0.00    -0.350 N 
HETATM   11  C   UNL     1     -39.564 -45.279  11.766  1.00  0.00     0.151 C 
HETATM   12  C   UNL     1     -39.176 -44.664  13.118  1.00  0.00     0.187 C 
HETATM   13  O   UNL     1     -39.389 -43.251  13.125  1.00  0.00    -0.387 OA
HETATM   14  C   UNL     1     -40.788 -42.973  12.931  1.00  0.00     0.202 C 
HETATM   15  C   UNL     1     -41.292 -43.499  11.573  1.00  0.00     0.195 C 
BRANCH  15  16
HETATM   16  C   UNL     1     -42.749 -43.055  11.377  1.00  0.00     0.220 C 
HETATM   17  O   UNL     1     -43.332 -43.028  10.297  1.00  0.00    -0.278 OA
HETATM   18  N   UNL     1     -43.443 -42.772  12.528  1.00  0.00    -0.271 NA
HETATM   19  H   UNL     1     -42.897 -42.341  13.265  1.00  0.00     0.127 HD
HETATM   20  H   UNL     1     -44.337 -42.332  12.348  1.00  0.00     0.127 HD
ENDBRANCH  15  16
ENDBRANCH   7  10
BRANCH   1  21
HETATM   21  C   UNL     1     -44.276 -47.125   8.683  1.00  0.00     0.045 C 
HETATM   22  C   UNL     1     -43.539 -47.932   7.612  1.00  0.00     0.017 C 
HETATM   23  C   UNL     1     -45.664 -47.708   8.943  1.00  0.00     0.017 C 
ENDBRANCH   1  21
TORSDOF 3
ENDMDL
MODEL 3
REMARK VINA RESULT:      -6.1      3.023      5.202
REMARK  3 active torsions:
REMARK  status: ('A' for Active; 'I' for Inactive)
REMARK    1  A    between atoms: C_2  and  C_4 
REMARK    2  A    between atoms: C_10  and  N_13 
REMARK    3  A    between atoms: C_18  and  C_19 
REMARK       I    between atoms: C_19  and  N_21 
ROOT
HETATM    1  C   UNL     1     -43.557 -47.419  10.750  1.00  0.00     0.086 A 
HETATM    2  N   UNL     1     -43.473 -46.385  11.603  1.00  0.00    -0.349 N 
ATOM      3  HN  UNL     1     -43.737 -45.439  11.328  1.00  0.00     0.167 HD
HETATM    4  C   UNL     1     -43.024 -46.663  12.833  1.00  0.00     0.010 A 
HETATM    5  C   UNL     1     -42.934 -45.535  13.815  1.00  0.00     0.068 C 
HETATM    6  C   UNL     1     -42.668 -47.941  13.213  1.00  0.00     0.073 A 
HETATM    7  C   UNL     1     -42.756 -48.965  12.282  1.00  0.00     0.107 A 
HETATM    8  N   UNL     1     -43.212 -48.689  11.052  1.00  0.00    -0.332 N 
ATOM      9  HN  UNL     1     -43.298 -49.427  10.355  1.00  0.00     0.168 HD
ENDROOT
BRANCH   7  10
HETATM   10  N   UNL     1     -42.445 -50.267  12.620  1.00  0.00    -0.350 N 
HETATM   11  C   UNL     1     -43.333 -51.025  13.528  1.00  0.00     0.151 C 
HETATM   12  C   UNL     1     -42.603 -51.434  14.815  1.00  0.00     0.187 C 
HETATM   13  O   UNL     1     -41.419 -52.180  14.524  1.00  0.00    -0.387 OA
HETATM   14  C   UNL     1     -40.505 -51.360  13.774  1.00  0.00     0.202 C 
HETATM   15  C   UNL     1     -41.106 -50.923  12.423  1.00  0.00     0.195 C 
BRANCH  15  16
HETATM   16  C   UNL     1     -40.034 -50.168  11.623  1.00  0.00     0.220 C 
HETATM   17  O   UNL     1     -38.940 -49.831  12.065  1.00  0.00    -0.278 OA
HETATM   18  N   UNL     1     -40.320 -49.963  10.295  1.00  0.00    -0.271 NA
HETATM   19  H   UNL     1     -41.296 -49.791  10.086  1.00  0.00     0.127 HD
HETATM   20  H   UNL     1     -39.670 -49.328   9.848  1.00  0.00     0.127 HD
ENDBRANCH  15  16
ENDBRANCH   7  10
BRANCH   1  21
HETATM   21  C   UNL     1     -44.086 -47.141   9.359  1.00  0.00     0.045 C 
HETATM   22  C   UNL     1     -45.544 -47.589   9.224  1.00  0.00     0.017 C 
HETATM   23  C   UNL     1     -43.940 -45.659   9.019  1.00  0.00     0.017 C 
ENDBRANCH   1  21
TORSDOF 3
ENDMDL
MODEL 4
REMARK VINA RESULT:      -6.0      3.588      4.959
REMARK  3 active torsions:
REMARK  status: ('A' for Active; 'I' for Inactive)
REMARK    1  A    between atoms: C_2  and  C_4 
REMARK    2  A    between atoms: C_10  and  N_13 
REMARK    3  A    between atoms: C_18  and  C_19 
REMARK       I    between atoms: C_19  and  N_21 
ROOT
HETATM    1  C   UNL     1     -38.660 -48.963  12.340  1.00  0.00     0.086 A 
HETATM    2  N   UNL     1     -38.562 -48.732  13.659  1.00  0.00    -0.349 N 
ATOM      3  HN  UNL     1     -38.130 -49.405  14.292  1.00  0.00     0.167 HD
HETATM    4  C   UNL     1     -39.061 -47.570  14.099  1.00  0.00     0.010 A 
HETATM    5  C   UNL     1     -38.953 -47.272  15.563  1.00  0.00     0.068 C 
HETATM    6  C   UNL     1     -39.644 -46.653  13.248  1.00  0.00     0.073 A 
HETATM    7  C   UNL     1     -39.736 -46.957  11.898  1.00  0.00     0.107 A 
HETATM    8  N   UNL     1     -39.229 -48.117  11.456  1.00  0.00    -0.332 N 
ATOM      9  HN  UNL     1     -39.273 -48.356  10.466  1.00  0.00     0.168 HD
ENDROOT
BRANCH   7  10
HETATM   10  N   UNL     1     -40.278 -46.060  10.999  1.00  0.00    -0.350 N 
HETATM   11  C   UNL     1     -39.726 -44.691  10.899  1.00  0.00     0.151 C 
HETATM   12  C   UNL     1     -40.779 -43.634  11.259  1.00  0.00     0.187 C 
HETATM   13  O   UNL     1     -41.948 -43.770  10.448  1.00  0.00    -0.387 OA
HETATM   14  C   UNL     1     -42.554 -45.054  10.686  1.00  0.00     0.202 C 
HETATM   15  C   UNL     1     -41.606 -46.211  10.310  1.00  0.00     0.195 C 
BRANCH  15  16
HETATM   16  C   UNL     1     -42.360 -47.540  10.463  1.00  0.00     0.220 C 
HETATM   17  O   UNL     1     -43.361 -47.700  11.155  1.00  0.00    -0.278 OA
HETATM   18  N   UNL     1     -41.910 -48.572   9.676  1.00  0.00    -0.271 NA
HETATM   19  H   UNL     1     -40.908 -48.594   9.527  1.00  0.00     0.127 HD
HETATM   20  H   UNL     1     -42.323 -49.462   9.923  1.00  0.00     0.127 HD
ENDBRANCH  15  16
ENDBRANCH   7  10
BRANCH   1  21
HETATM   21  C   UNL     1     -38.080 -50.257  11.809  1.00  0.00     0.045 C 
HETATM   22  C   UNL     1     -37.123 -49.996  10.644  1.00  0.00     0.017 C 
HETATM   23  C   UNL     1     -37.377 -51.025  12.927  1.00  0.00     0.017 C 
ENDBRANCH   1  21
TORSDOF 3
ENDMDL
MODEL 5
REMARK VINA RESULT:      -5.8      2.212      3.019
REMARK  3 active torsions:
REMARK  status: ('A' for Active; 'I' for Inactive)
REMARK    1  A    between atoms: C_2  and  C_4 
REMARK    2  A    between atoms: C_10  and  N_13 
REMARK    3  A    between atoms: C_18  and  C_19 
REMARK       I    between atoms: C_19  and  N_21 
ROOT
HETATM    1  C   UNL     1     -42.740 -47.249   9.881  1.00  0.00     0.086 A 
HETATM    2  N   UNL     1     -42.154 -48.449  10.018  1.00  0.00    -0.349 N 
ATOM      3  HN  UNL     1     -42.424 -49.248   9.443  1.00  0.00     0.167 HD
HETATM    4  C   UNL     1     -41.196 -48.543  10.949  1.00  0.00     0.010 A 
HETATM    5  C   UNL     1     -40.510 -49.864  11.116  1.00  0.00     0.068 C 
HETATM    6  C   UNL     1     -40.824 -47.466  11.728  1.00  0.00     0.073 A 
HETATM    7  C   UNL     1     -41.479 -46.256  11.555  1.00  0.00     0.107 A 
HETATM    8  N   UNL     1     -42.433 -46.161  10.618  1.00  0.00    -0.332 N 
ATOM      9  HN  UNL     1     -42.920 -45.278  10.464  1.00  0.00     0.168 HD
ENDROOT
BRANCH   7  10
HETATM   10  N   UNL     1     -41.121 -45.139  12.284  1.00  0.00    -0.350 N 
HETATM   11  C   UNL     1     -40.017 -44.274  11.814  1.00  0.00     0.151 C 
HETATM   12  C   UNL     1     -38.865 -44.235  12.827  1.00  0.00     0.187 C 
HETATM   13  O   UNL     1     -39.322 -43.818  14.116  1.00  0.00    -0.387 OA
HETATM   14  C   UNL     1     -40.281 -44.767  14.617  1.00  0.00     0.202 C 
HETATM   15  C   UNL     1     -41.521 -44.861  13.707  1.00  0.00     0.195 C 
BRANCH  15  16
HETATM   16  C   UNL     1     -42.554 -45.787  14.368  1.00  0.00     0.220 C 
HETATM   17  O   UNL     1     -42.276 -46.767  15.053  1.00  0.00    -0.278 OA
HETATM   18  N   UNL     1     -43.865 -45.397  14.244  1.00  0.00    -0.271 NA
HETATM   19  H   UNL     1     -44.101 -44.954  13.364  1.00  0.00     0.127 HD
HETATM   20  H   UNL     1     -44.516 -46.110  14.548  1.00  0.00     0.127 HD
ENDBRANCH  15  16
ENDBRANCH   7  10
BRANCH   1  21
HETATM   21  C   UNL     1     -43.808 -47.106   8.817  1.00  0.00     0.045 C 
HETATM   22  C   UNL     1     -43.484 -47.962   7.590  1.00  0.00     0.017 C 
HETATM   23  C   UNL     1     -45.178 -47.469   9.386  1.00  0.00     0.017 C 
ENDBRANCH   1  21
TORSDOF 3
ENDMDL
MODEL 6
REMARK VINA RESULT:      -5.7      1.821      2.177
REMARK  3 active torsions:
REMARK  status: ('A' for Active; 'I' for Inactive)
REMARK    1  A    between atoms: C_2  and  C_4 
REMARK    2  A    between atoms: C_10  and  N_13 
REMARK    3  A    between atoms: C_18  and  C_19 
REMARK       I    between atoms: C_19  and  N_21 
ROOT
HETATM    1  C   UNL     1     -43.044 -47.225  10.017  1.00  0.00     0.086 A 
HETATM    2  N   UNL     1     -42.292 -48.337  10.030  1.00  0.00    -0.349 N 
ATOM      3  HN  UNL     1     -42.402 -49.068   9.328  1.00  0.00     0.167 HD
HETATM    4  C   UNL     1     -41.390 -48.435  11.015  1.00  0.00     0.010 A 
HETATM    5  C   UNL     1     -40.523 -49.656  11.050  1.00  0.00     0.068 C 
HETATM    6  C   UNL     1     -41.234 -47.448  11.968  1.00  0.00     0.073 A 
HETATM    7  C   UNL     1     -42.054 -46.331  11.915  1.00  0.00     0.107 A 
HETATM    8  N   UNL     1     -42.952 -46.229  10.924  1.00  0.00    -0.332 N 
ATOM      9  HN  UNL     1     -43.557 -45.411  10.857  1.00  0.00     0.168 HD
ENDROOT
BRANCH   7  10
HETATM   10  N   UNL     1     -41.916 -45.299  12.822  1.00  0.00    -0.350 N 
HETATM   11  C   UNL     1     -42.145 -45.547  14.262  1.00  0.00     0.151 C 
HETATM   12  C   UNL     1     -43.311 -44.703  14.797  1.00  0.00     0.187 C 
HETATM   13  O   UNL     1     -43.099 -43.311  14.550  1.00  0.00    -0.387 OA
HETATM   14  C   UNL     1     -43.038 -43.078  13.130  1.00  0.00     0.202 C 
HETATM   15  C   UNL     1     -41.866 -43.836  12.477  1.00  0.00     0.195 C 
BRANCH  15  16
HETATM   16  C   UNL     1     -41.781 -43.439  10.995  1.00  0.00     0.220 C 
HETATM   17  O   UNL     1     -42.749 -43.187  10.283  1.00  0.00    -0.278 OA
HETATM   18  N   UNL     1     -40.512 -43.266  10.499  1.00  0.00    -0.271 NA
HETATM   19  H   UNL     1     -39.814 -43.896  10.875  1.00  0.00     0.127 HD
HETATM   20  H   UNL     1     -40.496 -43.166   9.492  1.00  0.00     0.127 HD
ENDBRANCH  15  16
ENDBRANCH   7  10
BRANCH   1  21
HETATM   21  C   UNL     1     -44.054 -47.073   8.900  1.00  0.00     0.045 C 
HETATM   22  C   UNL     1     -43.649 -47.894   7.673  1.00  0.00     0.017 C 
HETATM   23  C   UNL     1     -45.447 -47.471   9.383  1.00  0.00     0.017 C 
ENDBRANCH   1  21
TORSDOF 3
ENDMDL
MODEL 7
REMARK VINA RESULT:      -5.7      4.321      7.148
REMARK  3 active torsions:
REMARK  status: ('A' for Active; 'I' for Inactive)
REMARK    1  A    between atoms: C_2  and  C_4 
REMARK    2  A    between atoms: C_10  and  N_13 
REMARK    3  A    between atoms: C_18  and  C_19 
REMARK       I    between atoms: C_19  and  N_21 
ROOT
HETATM    1  C   UNL     1     -39.540 -49.112  12.049  1.00  0.00     0.086 A 
HETATM    2  N   UNL     1     -39.964 -48.078  11.305  1.00  0.00    -0.349 N 
ATOM      3  HN  UNL     1     -39.317 -47.384  10.930  1.00  0.00     0.167 HD
HETATM    4  C   UNL     1     -41.283 -48.005  11.082  1.00  0.00     0.010 A 
HETATM    5  C   UNL     1     -41.788 -46.873  10.241  1.00  0.00     0.068 C 
HETATM    6  C   UNL     1     -42.164 -48.942  11.584  1.00  0.00     0.073 A 
HETATM    7  C   UNL     1     -41.669 -49.976  12.363  1.00  0.00     0.107 A 
HETATM    8  N   UNL     1     -40.349 -50.053  12.581  1.00  0.00    -0.332 N 
ATOM      9  HN  UNL     1     -39.960 -50.813  13.139  1.00  0.00     0.168 HD
ENDROOT
BRANCH   7  10
HETATM   10  N   UNL     1     -42.503 -50.959  12.860  1.00  0.00    -0.350 N 
HETATM   11  C   UNL     1     -43.775 -50.584  13.516  1.00  0.00     0.151 C 
HETATM   12  C   UNL     1     -43.803 -51.035  14.983  1.00  0.00     0.187 C 
HETATM   13  O   UNL     1     -43.568 -52.441  15.098  1.00  0.00    -0.387 OA
HETATM   14  C   UNL     1     -42.255 -52.752  14.595  1.00  0.00     0.202 C 
HETATM   15  C   UNL     1     -42.114 -52.391  13.103  1.00  0.00     0.195 C 
BRANCH  15  16
HETATM   16  C   UNL     1     -40.743 -52.869  12.603  1.00  0.00     0.220 C 
HETATM   17  O   UNL     1     -39.748 -52.998  13.310  1.00  0.00    -0.278 OA
HETATM   18  N   UNL     1     -40.696 -53.267  11.289  1.00  0.00    -0.271 NA
HETATM   19  H   UNL     1     -41.289 -52.740  10.659  1.00  0.00     0.127 HD
HETATM   20  H   UNL     1     -39.752 -53.418  10.959  1.00  0.00     0.127 HD
ENDBRANCH  15  16
ENDBRANCH   7  10
BRANCH   1  21
HETATM   21  C   UNL     1     -38.052 -49.235  12.296  1.00  0.00     0.045 C 
HETATM   22  C   UNL     1     -37.725 -49.091  13.785  1.00  0.00     0.017 C 
HETATM   23  C   UNL     1     -37.530 -50.564  11.753  1.00  0.00     0.017 C 
ENDBRANCH   1  21
TORSDOF 3
ENDMDL
MODEL 8
REMARK VINA RESULT:      -5.7      4.522      7.378
REMARK  3 active torsions:
REMARK  status: ('A' for Active; 'I' for Inactive)
REMARK    1  A    between atoms: C_2  and  C_4 
REMARK    2  A    between atoms: C_10  and  N_13 
REMARK    3  A    between atoms: C_18  and  C_19 
REMARK       I    between atoms: C_19  and  N_21 
ROOT
HETATM    1  C   UNL     1     -42.037 -49.170  12.101  1.00  0.00     0.086 A 
HETATM    2  N   UNL     1     -42.195 -48.410  13.197  1.00  0.00    -0.349 N 
ATOM      3  HN  UNL     1     -41.881 -47.440  13.227  1.00  0.00     0.167 HD
HETATM    4  C   UNL     1     -42.786 -48.993  14.247  1.00  0.00     0.010 A 
HETATM    5  C   UNL     1     -42.992 -48.168  15.480  1.00  0.00     0.068 C 
HETATM    6  C   UNL     1     -43.215 -50.304  14.212  1.00  0.00     0.073 A 
HETATM    7  C   UNL     1     -43.007 -51.046  13.060  1.00  0.00     0.107 A 
HETATM    8  N   UNL     1     -42.422 -50.460  12.005  1.00  0.00    -0.332 N 
ATOM      9  HN  UNL     1     -42.270 -50.982  11.142  1.00  0.00     0.168 HD
ENDROOT
BRANCH   7  10
HETATM   10  N   UNL     1     -43.449 -52.351  12.960  1.00  0.00    -0.350 N 
HETATM   11  C   UNL     1     -44.870 -52.670  13.218  1.00  0.00     0.151 C 
HETATM   12  C   UNL     1     -45.022 -53.625  14.410  1.00  0.00     0.187 C 
HETATM   13  O   UNL     1     -44.261 -54.820  14.217  1.00  0.00    -0.387 OA
HETATM   14  C   UNL     1     -42.863 -54.491  14.128  1.00  0.00     0.202 C 
HETATM   15  C   UNL     1     -42.568 -53.570  12.928  1.00  0.00     0.195 C 
BRANCH  15  16
HETATM   16  C   UNL     1     -41.049 -53.369  12.816  1.00  0.00     0.220 C 
HETATM   17  O   UNL     1     -40.262 -53.459  13.753  1.00  0.00    -0.278 OA
HETATM   18  N   UNL     1     -40.568 -53.177  11.543  1.00  0.00    -0.271 NA
HETATM   19  H   UNL     1     -41.176 -52.649  10.929  1.00  0.00     0.127 HD
HETATM   20  H   UNL     1     -39.598 -52.890  11.531  1.00  0.00     0.127 HD
ENDBRANCH  15  16
ENDBRANCH   7  10
BRANCH   1  21
HETATM   21  C   UNL     1     -41.397 -48.530  10.888  1.00  0.00     0.045 C 
HETATM   22  C   UNL     1     -42.451 -47.893   9.978  1.00  0.00     0.017 C 
HETATM   23  C   UNL     1     -40.355 -47.498  11.317  1.00  0.00     0.017 C 
ENDBRANCH   1  21
TORSDOF 3
ENDMDL
MODEL 9
REMARK VINA RESULT:      -5.6      6.458      8.619
REMARK  3 active torsions:
REMARK  status: ('A' for Active; 'I' for Inactive)
REMARK    1  A    between atoms: C_2  and  C_4 
REMARK    2  A    between atoms: C_10  and  N_13 
REMARK    3  A    between atoms: C_18  and  C_19 
REMARK       I    between atoms: C_19  and  N_21 
ROOT
HETATM    1  C   UNL     1     -44.696 -52.004  14.468  1.00  0.00     0.086 A 
HETATM    2  N   UNL     1     -44.300 -50.812  14.940  1.00  0.00    -0.349 N 
ATOM      3  HN  UNL     1     -44.946 -50.027  15.030  1.00  0.00     0.167 HD
HETATM    4  C   UNL     1     -43.011 -50.707  15.287  1.00  0.00     0.010 A 
HETATM    5  C   UNL     1     -42.539 -49.394  15.834  1.00  0.00     0.068 C 
HETATM    6  C   UNL     1     -42.132 -51.765  15.171  1.00  0.00     0.073 A 
HETATM    7  C   UNL     1     -42.595 -52.966  14.657  1.00  0.00     0.107 A 
HETATM    8  N   UNL     1     -43.887 -53.074  14.317  1.00  0.00    -0.332 N 
ATOM      9  HN  UNL     1     -44.253 -53.951  13.949  1.00  0.00     0.168 HD
ENDROOT
BRANCH   7  10
HETATM   10  N   UNL     1     -41.766 -54.066  14.553  1.00  0.00    -0.350 N 
HETATM   11  C   UNL     1     -41.811 -55.124  15.586  1.00  0.00     0.151 C 
HETATM   12  C   UNL     1     -40.462 -55.261  16.306  1.00  0.00     0.187 C 
HETATM   13  O   UNL     1     -39.401 -55.503  15.379  1.00  0.00    -0.387 OA
HETATM   14  C   UNL     1     -39.279 -54.382  14.484  1.00  0.00     0.202 C 
HETATM   15  C   UNL     1     -40.562 -54.168  13.657  1.00  0.00     0.195 C 
BRANCH  15  16
HETATM   16  C   UNL     1     -40.314 -53.047  12.637  1.00  0.00     0.220 C 
HETATM   17  O   UNL     1     -39.615 -52.059  12.841  1.00  0.00    -0.278 OA
HETATM   18  N   UNL     1     -40.849 -53.252  11.388  1.00  0.00    -0.271 NA
HETATM   19  H   UNL     1     -41.739 -53.735  11.375  1.00  0.00     0.127 HD
HETATM   20  H   UNL     1     -40.804 -52.428  10.803  1.00  0.00     0.127 HD
ENDBRANCH  15  16
ENDBRANCH   7  10
BRANCH   1  21
HETATM   21  C   UNL     1     -46.155 -52.161  14.093  1.00  0.00     0.045 C 
HETATM   22  C   UNL     1     -47.066 -51.500  15.130  1.00  0.00     0.017 C 
HETATM   23  C   UNL     1     -46.411 -51.588  12.700  1.00  0.00     0.017 C 
ENDBRANCH   1  21
TORSDOF 3
ENDMDL
