MODEL 1
REMARK VINA RESULT:      -6.2      0.000      0.000
REMARK  3 active torsions:
REMARK  status: ('A' for Active; 'I' for Inactive)
REMARK    1  A    between atoms: N_2  and  C_4 
REMARK    2  A    between atoms: C_10  and  N_11 
REMARK       I    between atoms: N_11  and  C_12 
REMARK       I    between atoms: C_12  and  N_14 
REMARK    3  A    between atoms: N_14  and  C_15 
ROOT
HETATM    1  N   UNL     1     -42.417 -48.519  10.576  1.00  0.00    -0.306 N 
HETATM    2  C   UNL     1     -42.500 -49.160  11.794  1.00  0.00     0.321 C 
HETATM    3  O   UNL     1     -42.990 -48.687  12.814  1.00  0.00    -0.247 OA
HETATM    4  N   UNL     1     -41.981 -50.432  11.782  1.00  0.00    -0.335 N 
HETATM    5  H   UNL     1     -42.212 -49.100   9.767  1.00  0.00     0.170 HD
HETATM    6  H   UNL     1     -41.559 -50.812  10.948  1.00  0.00     0.164 HD
ENDROOT
BRANCH   1   7
HETATM    7  C   UNL     1     -42.805 -47.169  10.320  1.00  0.00     0.072 A 
HETATM    8  C   UNL     1     -43.632 -46.803   9.241  1.00  0.00     0.144 A 
HETATM    9  C   UNL     1     -43.967 -45.461   9.069  1.00  0.00     0.126 A 
HETATM   10  N   UNL     1     -43.541 -44.466   9.879  1.00  0.00    -0.373 N 
HETATM   11  C   UNL     1     -42.745 -44.825  10.902  1.00  0.00     0.090 A 
ATOM     12  HN  UNL     1     -43.808 -43.494   9.722  1.00  0.00     0.164 HD
HETATM   13  C   UNL     1     -42.351 -46.131  11.146  1.00  0.00     0.049 A 
BRANCH   8  14
HETATM   14  N   UNL     1     -44.189 -47.761   8.298  1.00  0.00    -0.112 N 
HETATM   15  O   UNL     1     -43.442 -48.215   7.416  1.00  0.00    -0.532 OA
HETATM   16  O   UNL     1     -45.383 -48.075   8.433  1.00  0.00    -0.532 OA
ENDBRANCH   8  14
ENDBRANCH   1   7
BRANCH   4  17
HETATM   17  C   UNL     1     -41.967 -51.220  13.005  1.00  0.00     0.109 A 
HETATM   18  C   UNL     1     -40.544 -51.634  13.419  1.00  0.00     0.029 A 
HETATM   19  C   UNL     1     -40.188 -53.125  13.448  1.00  0.00     0.006 A 
HETATM   20  C   UNL     1     -41.276 -54.151  13.134  1.00  0.00     0.027 A 
HETATM   21  C   UNL     1     -42.645 -53.624  12.877  1.00  0.00    -0.029 A 
HETATM   22  C   UNL     1     -42.947 -52.326  12.815  1.00  0.00    -0.006 A 
ENDBRANCH   4  17
TORSDOF 3
ENDMDL
MODEL 2
REMARK VINA RESULT:      -6.1      1.855      2.430
REMARK  3 active torsions:
REMARK  status: ('A' for Active; 'I' for Inactive)
REMARK    1  A    between atoms: N_2  and  C_4 
REMARK    2  A    between atoms: C_10  and  N_11 
REMARK       I    between atoms: N_11  and  C_12 
REMARK       I    between atoms: C_12  and  N_14 
REMARK    3  A    between atoms: N_14  and  C_15 
ROOT
HETATM    1  N   UNL     1     -42.005 -49.495  11.308  1.00  0.00    -0.306 N 
HETATM    2  C   UNL     1     -42.703 -49.905  12.424  1.00  0.00     0.321 C 
HETATM    3  O   UNL     1     -43.105 -49.170  13.321  1.00  0.00    -0.247 OA
HETATM    4  N   UNL     1     -42.942 -51.257  12.456  1.00  0.00    -0.335 N 
HETATM    5  H   UNL     1     -41.944 -50.157  10.539  1.00  0.00     0.170 HD
HETATM    6  H   UNL     1     -42.592 -51.863  11.730  1.00  0.00     0.164 HD
ENDROOT
BRANCH   1   7
HETATM    7  C   UNL     1     -41.554 -48.164  11.053  1.00  0.00     0.072 A 
HETATM    8  C   UNL     1     -42.264 -47.258  10.242  1.00  0.00     0.144 A 
HETATM    9  C   UNL     1     -41.755 -45.976  10.052  1.00  0.00     0.126 A 
HETATM   10  N   UNL     1     -40.600 -45.533  10.598  1.00  0.00    -0.373 N 
HETATM   11  C   UNL     1     -39.924 -46.409  11.365  1.00  0.00     0.090 A 
ATOM     12  HN  UNL     1     -40.258 -44.585  10.437  1.00  0.00     0.164 HD
HETATM   13  C   UNL     1     -40.348 -47.706  11.602  1.00  0.00     0.049 A 
BRANCH   8  14
HETATM   14  N   UNL     1     -43.534 -47.579   9.606  1.00  0.00    -0.112 N 
HETATM   15  O   UNL     1     -44.538 -47.684  10.329  1.00  0.00    -0.532 OA
HETATM   16  O   UNL     1     -43.540 -47.726   8.373  1.00  0.00    -0.532 OA
ENDBRANCH   8  14
ENDBRANCH   1   7
BRANCH   4  17
HETATM   17  C   UNL     1     -43.639 -51.843  13.592  1.00  0.00     0.109 A 
HETATM   18  C   UNL     1     -42.864 -53.017  14.214  1.00  0.00     0.029 A 
HETATM   19  C   UNL     1     -43.490 -54.416  14.179  1.00  0.00     0.006 A 
HETATM   20  C   UNL     1     -44.890 -54.585  13.592  1.00  0.00     0.027 A 
HETATM   21  C   UNL     1     -45.586 -53.348  13.143  1.00  0.00    -0.029 A 
HETATM   22  C   UNL     1     -45.028 -52.135  13.138  1.00  0.00    -0.006 A 
ENDBRANCH   4  17
TORSDOF 3
ENDMDL
MODEL 3
REMARK VINA RESULT:      -5.9      1.828      2.525
REMARK  3 active torsions:
REMARK  status: ('A' for Active; 'I' for Inactive)
REMARK    1  A    between atoms: N_2  and  C_4 
REMARK    2  A    between atoms: C_10  and  N_11 
REMARK       I    between atoms: N_11  and  C_12 
REMARK       I    between atoms: C_12  and  N_14 
REMARK    3  A    between atoms: N_14  and  C_15 
ROOT
HETATM    1  N   UNL     1     -42.245 -48.746  10.502  1.00  0.00    -0.306 N 
HETATM    2  C   UNL     1     -42.406 -49.377  11.716  1.00  0.00     0.321 C 
HETATM    3  O   UNL     1     -43.137 -48.995  12.625  1.00  0.00    -0.247 OA
HETATM    4  N   UNL     1     -41.665 -50.527  11.840  1.00  0.00    -0.335 N 
HETATM    5  H   UNL     1     -41.805 -49.286   9.761  1.00  0.00     0.170 HD
HETATM    6  H   UNL     1     -41.048 -50.829  11.101  1.00  0.00     0.164 HD
ENDROOT
BRANCH   1   7
HETATM    7  C   UNL     1     -42.830 -47.497  10.131  1.00  0.00     0.072 A 
HETATM    8  C   UNL     1     -42.305 -46.256  10.539  1.00  0.00     0.144 A 
HETATM    9  C   UNL     1     -42.935 -45.084  10.125  1.00  0.00     0.126 A 
HETATM   10  N   UNL     1     -44.041 -45.056   9.348  1.00  0.00    -0.373 N 
HETATM   11  C   UNL     1     -44.541 -46.247   8.970  1.00  0.00     0.090 A 
ATOM     12  HN  UNL     1     -44.475 -44.177   9.064  1.00  0.00     0.164 HD
HETATM   13  C   UNL     1     -43.988 -47.462   9.341  1.00  0.00     0.049 A 
BRANCH   8  14
HETATM   14  N   UNL     1     -41.107 -46.123  11.355  1.00  0.00    -0.112 N 
HETATM   15  O   UNL     1     -41.205 -45.535  12.444  1.00  0.00    -0.532 OA
HETATM   16  O   UNL     1     -40.053 -46.612  10.915  1.00  0.00    -0.532 OA
ENDBRANCH   8  14
ENDBRANCH   1   7
BRANCH   4  17
HETATM   17  C   UNL     1     -41.705 -51.285  13.082  1.00  0.00     0.109 A 
HETATM   18  C   UNL     1     -40.301 -51.551  13.653  1.00  0.00     0.029 A 
HETATM   19  C   UNL     1     -39.811 -52.999  13.764  1.00  0.00     0.006 A 
HETATM   20  C   UNL     1     -40.759 -54.132  13.371  1.00  0.00     0.027 A 
HETATM   21  C   UNL     1     -42.136 -53.746  12.959  1.00  0.00    -0.029 A 
HETATM   22  C   UNL     1     -42.552 -52.484  12.826  1.00  0.00    -0.006 A 
ENDBRANCH   4  17
TORSDOF 3
ENDMDL
MODEL 4
REMARK VINA RESULT:      -5.9      2.687      3.664
REMARK  3 active torsions:
REMARK  status: ('A' for Active; 'I' for Inactive)
REMARK    1  A    between atoms: N_2  and  C_4 
REMARK    2  A    between atoms: C_10  and  N_11 
REMARK       I    between atoms: N_11  and  C_12 
REMARK       I    between atoms: C_12  and  N_14 
REMARK    3  A    between atoms: N_14  and  C_15 
ROOT
HETATM    1  N   UNL     1     -42.048 -49.727  11.354  1.00  0.00    -0.306 N 
HETATM    2  C   UNL     1     -42.751 -50.106  12.478  1.00  0.00     0.321 C 
HETATM    3  O   UNL     1     -43.212 -49.342  13.320  1.00  0.00    -0.247 OA
HETATM    4  N   UNL     1     -42.917 -51.465  12.588  1.00  0.00    -0.335 N 
HETATM    5  H   UNL     1     -41.933 -50.429  10.628  1.00  0.00     0.170 HD
HETATM    6  H   UNL     1     -42.519 -52.094  11.907  1.00  0.00     0.164 HD
ENDROOT
BRANCH   1   7
HETATM    7  C   UNL     1     -41.662 -48.391  11.028  1.00  0.00     0.072 A 
HETATM    8  C   UNL     1     -40.416 -47.845  11.392  1.00  0.00     0.144 A 
HETATM    9  C   UNL     1     -40.117 -46.534  11.027  1.00  0.00     0.126 A 
HETATM   10  N   UNL     1     -40.960 -45.732  10.338  1.00  0.00    -0.373 N 
HETATM   11  C   UNL     1     -42.151 -46.260  10.002  1.00  0.00     0.090 A 
ATOM     12  HN  UNL     1     -40.706 -44.776  10.087  1.00  0.00     0.164 HD
HETATM   13  C   UNL     1     -42.539 -47.549  10.330  1.00  0.00     0.049 A 
BRANCH   8  14
HETATM   14  N   UNL     1     -39.394 -48.592  12.112  1.00  0.00    -0.112 N 
HETATM   15  O   UNL     1     -38.976 -49.646  11.606  1.00  0.00    -0.532 OA
HETATM   16  O   UNL     1     -38.996 -48.128  13.193  1.00  0.00    -0.532 OA
ENDBRANCH   8  14
ENDBRANCH   1   7
BRANCH   4  17
HETATM   17  C   UNL     1     -43.611 -52.019  13.742  1.00  0.00     0.109 A 
HETATM   18  C   UNL     1     -42.837 -53.182  14.388  1.00  0.00     0.029 A 
HETATM   19  C   UNL     1     -43.471 -54.578  14.392  1.00  0.00     0.006 A 
HETATM   20  C   UNL     1     -44.876 -54.753  13.818  1.00  0.00     0.027 A 
HETATM   21  C   UNL     1     -45.568 -53.524  13.342  1.00  0.00    -0.029 A 
HETATM   22  C   UNL     1     -45.004 -52.315  13.304  1.00  0.00    -0.006 A 
ENDBRANCH   4  17
TORSDOF 3
ENDMDL
MODEL 5
REMARK VINA RESULT:      -5.7      4.562      6.374
REMARK  3 active torsions:
REMARK  status: ('A' for Active; 'I' for Inactive)
REMARK    1  A    between atoms: N_2  and  C_4 
REMARK    2  A    between atoms: C_10  and  N_11 
REMARK       I    between atoms: N_11  and  C_12 
REMARK       I    between atoms: C_12  and  N_14 
REMARK    3  A    between atoms: N_14  and  C_15 
ROOT
HETATM    1  N   UNL     1     -41.310 -51.141  13.678  1.00  0.00    -0.306 N 
HETATM    2  C   UNL     1     -42.291 -51.836  13.004  1.00  0.00     0.321 C 
HETATM    3  O   UNL     1     -42.191 -52.286  11.867  1.00  0.00    -0.247 OA
HETATM    4  N   UNL     1     -43.442 -52.009  13.734  1.00  0.00    -0.335 N 
HETATM    5  H   UNL     1     -41.432 -51.037  14.682  1.00  0.00     0.170 HD
HETATM    6  H   UNL     1     -43.532 -51.619  14.660  1.00  0.00     0.164 HD
ENDROOT
BRANCH   1   7
HETATM    7  C   UNL     1     -40.048 -50.751  13.136  1.00  0.00     0.072 A 
HETATM    8  C   UNL     1     -38.861 -51.471  13.369  1.00  0.00     0.144 A 
HETATM    9  C   UNL     1     -37.672 -51.024  12.796  1.00  0.00     0.126 A 
HETATM   10  N   UNL     1     -37.577 -49.921  12.020  1.00  0.00    -0.373 N 
HETATM   11  C   UNL     1     -38.715 -49.234  11.809  1.00  0.00     0.090 A 
ATOM     12  HN  UNL     1     -36.689 -49.624  11.616  1.00  0.00     0.164 HD
HETATM   13  C   UNL     1     -39.940 -49.598  12.346  1.00  0.00     0.049 A 
BRANCH   8  14
HETATM   14  N   UNL     1     -38.807 -52.691  14.162  1.00  0.00    -0.112 N 
HETATM   15  O   UNL     1     -38.920 -52.592  15.395  1.00  0.00    -0.532 OA
HETATM   16  O   UNL     1     -38.655 -53.765  13.557  1.00  0.00    -0.532 OA
ENDBRANCH   8  14
ENDBRANCH   1   7
BRANCH   4  17
HETATM   17  C   UNL     1     -44.581 -52.694  13.140  1.00  0.00     0.109 A 
HETATM   18  C   UNL     1     -45.926 -52.149  13.652  1.00  0.00     0.029 A 
HETATM   19  C   UNL     1     -46.845 -53.083  14.447  1.00  0.00     0.006 A 
HETATM   20  C   UNL     1     -46.429 -54.541  14.643  1.00  0.00     0.027 A 
HETATM   21  C   UNL     1     -45.166 -54.975  13.985  1.00  0.00    -0.029 A 
HETATM   22  C   UNL     1     -44.346 -54.154  13.325  1.00  0.00    -0.006 A 
ENDBRANCH   4  17
TORSDOF 3
ENDMDL
MODEL 6
REMARK VINA RESULT:      -5.7      2.916      7.338
REMARK  3 active torsions:
REMARK  status: ('A' for Active; 'I' for Inactive)
REMARK    1  A    between atoms: N_2  and  C_4 
REMARK    2  A    between atoms: C_10  and  N_11 
REMARK       I    between atoms: N_11  and  C_12 
REMARK       I    between atoms: C_12  and  N_14 
REMARK    3  A    between atoms: N_14  and  C_15 
ROOT
HETATM    1  N   UNL     1     -42.609 -51.650  12.066  1.00  0.00    -0.306 N 
HETATM    2  C   UNL     1     -42.573 -50.360  12.551  1.00  0.00     0.321 C 
HETATM    3  O   UNL     1     -42.836 -50.025  13.702  1.00  0.00    -0.247 OA
HETATM    4  N   UNL     1     -42.191 -49.431  11.613  1.00  0.00    -0.335 N 
HETATM    5  H   UNL     1     -42.144 -51.817  11.178  1.00  0.00     0.170 HD
HETATM    6  H   UNL     1     -41.996 -49.705  10.662  1.00  0.00     0.164 HD
ENDROOT
BRANCH   1   7
HETATM    7  C   UNL     1     -43.044 -52.799  12.795  1.00  0.00     0.072 A 
HETATM    8  C   UNL     1     -42.198 -53.526  13.653  1.00  0.00     0.144 A 
HETATM    9  C   UNL     1     -42.707 -54.631  14.331  1.00  0.00     0.126 A 
HETATM   10  N   UNL     1     -43.981 -55.066  14.216  1.00  0.00    -0.373 N 
HETATM   11  C   UNL     1     -44.781 -54.370  13.387  1.00  0.00     0.090 A 
ATOM     12  HN  UNL     1     -44.320 -55.880  14.730  1.00  0.00     0.164 HD
HETATM   13  C   UNL     1     -44.360 -53.265  12.664  1.00  0.00     0.049 A 
BRANCH   8  14
HETATM   14  N   UNL     1     -40.809 -53.166  13.900  1.00  0.00    -0.112 N 
HETATM   15  O   UNL     1     -40.042 -53.097  12.926  1.00  0.00    -0.532 OA
HETATM   16  O   UNL     1     -40.471 -52.945  15.074  1.00  0.00    -0.532 OA
ENDBRANCH   8  14
ENDBRANCH   1   7
BRANCH   4  17
HETATM   17  C   UNL     1     -42.139 -48.021  11.969  1.00  0.00     0.109 A 
HETATM   18  C   UNL     1     -42.979 -47.146  11.022  1.00  0.00     0.029 A 
HETATM   19  C   UNL     1     -42.266 -46.094  10.165  1.00  0.00     0.006 A 
HETATM   20  C   UNL     1     -40.760 -45.901  10.331  1.00  0.00     0.027 A 
HETATM   21  C   UNL     1     -40.087 -46.720  11.376  1.00  0.00    -0.029 A 
HETATM   22  C   UNL     1     -40.698 -47.663  12.096  1.00  0.00    -0.006 A 
ENDBRANCH   4  17
TORSDOF 3
ENDMDL
MODEL 7
REMARK VINA RESULT:      -5.5      6.726      9.254
REMARK  3 active torsions:
REMARK  status: ('A' for Active; 'I' for Inactive)
REMARK    1  A    between atoms: N_2  and  C_4 
REMARK    2  A    between atoms: C_10  and  N_11 
REMARK       I    between atoms: N_11  and  C_12 
REMARK       I    between atoms: C_12  and  N_14 
REMARK    3  A    between atoms: N_14  and  C_15 
ROOT
HETATM    1  N   UNL     1     -41.909 -54.175  16.183  1.00  0.00    -0.306 N 
HETATM    2  C   UNL     1     -43.090 -54.529  15.567  1.00  0.00     0.321 C 
HETATM    3  O   UNL     1     -43.400 -55.665  15.223  1.00  0.00    -0.247 OA
HETATM    4  N   UNL     1     -43.944 -53.472  15.368  1.00  0.00    -0.335 N 
HETATM    5  H   UNL     1     -41.880 -53.261  16.625  1.00  0.00     0.170 HD
HETATM    6  H   UNL     1     -43.679 -52.535  15.632  1.00  0.00     0.164 HD
ENDROOT
BRANCH   1   7
HETATM    7  C   UNL     1     -40.812 -55.053  16.442  1.00  0.00     0.072 A 
HETATM    8  C   UNL     1     -39.571 -54.938  15.787  1.00  0.00     0.144 A 
HETATM    9  C   UNL     1     -38.551 -55.833  16.105  1.00  0.00     0.126 A 
HETATM   10  N   UNL     1     -38.675 -56.827  17.013  1.00  0.00    -0.373 N 
HETATM   11  C   UNL     1     -39.867 -56.933  17.628  1.00  0.00     0.090 A 
ATOM     12  HN  UNL     1     -37.905 -57.463  17.221  1.00  0.00     0.164 HD
HETATM   13  C   UNL     1     -40.941 -56.096  17.369  1.00  0.00     0.049 A 
BRANCH   8  14
HETATM   14  N   UNL     1     -39.277 -53.905  14.804  1.00  0.00    -0.112 N 
HETATM   15  O   UNL     1     -38.967 -54.264  13.656  1.00  0.00    -0.532 OA
HETATM   16  O   UNL     1     -39.358 -52.722  15.170  1.00  0.00    -0.532 OA
ENDBRANCH   8  14
ENDBRANCH   1   7
BRANCH   4  17
HETATM   17  C   UNL     1     -45.218 -53.685  14.697  1.00  0.00     0.109 A 
HETATM   18  C   UNL     1     -45.080 -53.682  13.164  1.00  0.00     0.029 A 
HETATM   19  C   UNL     1     -45.795 -52.589  12.362  1.00  0.00     0.006 A 
HETATM   20  C   UNL     1     -46.675 -51.583  13.103  1.00  0.00     0.027 A 
HETATM   21  C   UNL     1     -46.829 -51.776  14.571  1.00  0.00    -0.029 A 
HETATM   22  C   UNL     1     -46.178 -52.704  15.276  1.00  0.00    -0.006 A 
ENDBRANCH   4  17
TORSDOF 3
ENDMDL
MODEL 8
REMARK VINA RESULT:      -5.5      4.688      7.103
REMARK  3 active torsions:
REMARK  status: ('A' for Active; 'I' for Inactive)
REMARK    1  A    between atoms: N_2  and  C_4 
REMARK    2  A    between atoms: C_10  and  N_11 
REMARK       I    between atoms: N_11  and  C_12 
REMARK       I    between atoms: C_12  and  N_14 
REMARK    3  A    between atoms: N_14  and  C_15 
ROOT
HETATM    1  N   UNL     1     -43.242 -51.742  14.293  1.00  0.00    -0.306 N 
HETATM    2  C   UNL     1     -42.279 -51.927  13.324  1.00  0.00     0.321 C 
HETATM    3  O   UNL     1     -42.411 -52.604  12.310  1.00  0.00    -0.247 OA
HETATM    4  N   UNL     1     -41.107 -51.256  13.580  1.00  0.00    -0.335 N 
HETATM    5  H   UNL     1     -43.091 -50.978  14.947  1.00  0.00     0.170 HD
HETATM    6  H   UNL     1     -40.991 -50.717  14.425  1.00  0.00     0.164 HD
ENDROOT
BRANCH   1   7
HETATM    7  C   UNL     1     -44.520 -52.378  14.326  1.00  0.00     0.072 A 
HETATM    8  C   UNL     1     -44.717 -53.671  14.845  1.00  0.00     0.144 A 
HETATM    9  C   UNL     1     -46.001 -54.214  14.845  1.00  0.00     0.126 A 
HETATM   10  N   UNL     1     -47.091 -53.574  14.365  1.00  0.00    -0.373 N 
HETATM   11  C   UNL     1     -46.891 -52.341  13.863  1.00  0.00     0.090 A 
ATOM     12  HN  UNL     1     -48.016 -54.003  14.382  1.00  0.00     0.164 HD
HETATM   13  C   UNL     1     -45.651 -51.726  13.813  1.00  0.00     0.049 A 
BRANCH   8  14
HETATM   14  N   UNL     1     -43.648 -54.475  15.419  1.00  0.00    -0.112 N 
HETATM   15  O   UNL     1     -42.857 -53.922  16.200  1.00  0.00    -0.532 OA
HETATM   16  O   UNL     1     -43.591 -55.673  15.097  1.00  0.00    -0.532 OA
ENDBRANCH   8  14
ENDBRANCH   1   7
BRANCH   4  17
HETATM   17  C   UNL     1     -39.985 -51.384  12.662  1.00  0.00     0.109 A 
HETATM   18  C   UNL     1     -38.665 -51.697  13.389  1.00  0.00     0.029 A 
HETATM   19  C   UNL     1     -37.524 -50.676  13.318  1.00  0.00     0.006 A 
HETATM   20  C   UNL     1     -37.709 -49.417  12.472  1.00  0.00     0.027 A 
HETATM   21  C   UNL     1     -38.984 -49.297  11.713  1.00  0.00    -0.029 A 
HETATM   22  C   UNL     1     -39.993 -50.166  11.803  1.00  0.00    -0.006 A 
ENDBRANCH   4  17
TORSDOF 3
ENDMDL
MODEL 9
REMARK VINA RESULT:      -5.5      2.794      4.108
REMARK  3 active torsions:
REMARK  status: ('A' for Active; 'I' for Inactive)
REMARK    1  A    between atoms: N_2  and  C_4 
REMARK    2  A    between atoms: C_10  and  N_11 
REMARK       I    between atoms: N_11  and  C_12 
REMARK       I    between atoms: C_12  and  N_14 
REMARK    3  A    between atoms: N_14  and  C_15 
ROOT
HETATM    1  N   UNL     1     -42.196 -49.612  12.642  1.00  0.00    -0.306 N 
HETATM    2  C   UNL     1     -41.940 -50.945  12.406  1.00  0.00     0.321 C 
HETATM    3  O   UNL     1     -41.173 -51.382  11.553  1.00  0.00    -0.247 OA
HETATM    4  N   UNL     1     -42.627 -51.793  13.240  1.00  0.00    -0.335 N 
HETATM    5  H   UNL     1     -42.657 -49.383  13.519  1.00  0.00     0.170 HD
HETATM    6  H   UNL     1     -43.274 -51.434  13.926  1.00  0.00     0.164 HD
ENDROOT
BRANCH   1   7
HETATM    7  C   UNL     1     -41.683 -48.519  11.877  1.00  0.00     0.072 A 
HETATM    8  C   UNL     1     -40.388 -48.000  12.062  1.00  0.00     0.144 A 
HETATM    9  C   UNL     1     -39.965 -46.936  11.267  1.00  0.00     0.126 A 
HETATM   10  N   UNL     1     -40.729 -46.353  10.316  1.00  0.00    -0.373 N 
HETATM   11  C   UNL     1     -41.968 -46.852  10.153  1.00  0.00     0.090 A 
ATOM     12  HN  UNL     1     -40.385 -45.576   9.752  1.00  0.00     0.164 HD
HETATM   13  C   UNL     1     -42.478 -47.900  10.903  1.00  0.00     0.049 A 
BRANCH   8  14
HETATM   14  N   UNL     1     -39.440 -48.536  13.028  1.00  0.00    -0.112 N 
HETATM   15  O   UNL     1     -38.362 -48.982  12.603  1.00  0.00    -0.532 OA
HETATM   16  O   UNL     1     -39.764 -48.512  14.227  1.00  0.00    -0.532 OA
ENDBRANCH   8  14
ENDBRANCH   1   7
BRANCH   4  17
HETATM   17  C   UNL     1     -42.485 -53.233  13.088  1.00  0.00     0.109 A 
HETATM   18  C   UNL     1     -43.843 -53.952  13.013  1.00  0.00     0.029 A 
HETATM   19  C   UNL     1     -44.212 -54.950  14.117  1.00  0.00     0.006 A 
HETATM   20  C   UNL     1     -43.192 -55.249  15.214  1.00  0.00     0.027 A 
HETATM   21  C   UNL     1     -41.864 -54.585  15.098  1.00  0.00    -0.029 A 
HETATM   22  C   UNL     1     -41.555 -53.689  14.159  1.00  0.00    -0.006 A 
ENDBRANCH   4  17
TORSDOF 3
ENDMDL
