MODEL 1
REMARK VINA RESULT:      -6.5      0.000      0.000
REMARK  7 active torsions:
REMARK  status: ('A' for Active; 'I' for Inactive)
REMARK    1  A    between atoms: C_2  and  C_3 
REMARK    2  A    between atoms: C_3  and  C_4 
REMARK    3  A    between atoms: C_3  and  N_9 
REMARK    4  A    between atoms: C_4  and  C_5 
REMARK    5  A    between atoms: C_5  and  N_6 
REMARK       I    between atoms: N_9  and  C_10 
REMARK       I    between atoms: C_10  and  N_12 
REMARK    6  A    between atoms: N_12  and  C_13 
REMARK    7  A    between atoms: N_17  and  C_20 
ROOT
HETATM    1  N   UNL     1     -44.119 -52.292  13.545  1.00  0.00    -0.337 N 
HETATM    2  C   UNL     1     -43.693 -53.218  12.645  1.00  0.00     0.334 C 
HETATM    3  O   UNL     1     -44.356 -54.211  12.348  1.00  0.00    -0.246 OA
HETATM    4  N   UNL     1     -42.472 -53.011  12.098  1.00  0.00    -0.140 N 
HETATM    5  H   UNL     1     -43.543 -51.463  13.641  1.00  0.00     0.164 HD
HETATM    6  H   UNL     1     -42.136 -53.712  11.459  1.00  0.00     0.189 HD
ENDROOT
BRANCH   4   7
HETATM    7  C   UNL     1     -41.700 -51.890  12.169  1.00  0.00     0.702 C 
HETATM    8  N   UNL     1     -42.085 -50.650  11.730  1.00  0.00    -0.185 N 
HETATM    9  C   UNL     1     -40.962 -49.957  11.772  1.00  0.00     0.218 C 
ATOM     10  HN  UNL     1     -43.013 -50.339  11.441  1.00  0.00     0.185 HD
HETATM   11  N   UNL     1     -39.955 -50.759  12.206  1.00  0.00    -0.268 N 
HETATM   12  N   UNL     1     -40.444 -51.954  12.596  1.00  0.00    -0.128 N 
ATOM     13  HN  UNL     1     -39.972 -52.712  13.090  1.00  0.00     0.206 HD
BRANCH  11  14
HETATM   14  C   UNL     1     -38.504 -50.604  12.137  1.00  0.00     0.109 C 
HETATM   15  C   UNL     1     -37.681 -51.257  13.264  1.00  0.00     0.027 C 
HETATM   16  C   UNL     1     -37.727 -50.513  14.605  1.00  0.00     0.002 C 
HETATM   17  C   UNL     1     -37.570 -48.998  14.483  1.00  0.00     0.000 C 
HETATM   18  C   UNL     1     -38.436 -48.407  13.381  1.00  0.00     0.002 C 
HETATM   19  C   UNL     1     -38.139 -49.105  12.056  1.00  0.00     0.027 C 
ENDBRANCH  11  14
ENDBRANCH   4   7
BRANCH   1  20
HETATM   20  C   UNL     1     -45.389 -52.374  14.248  1.00  0.00     0.097 C 
BRANCH  20  21
HETATM   21  C   UNL     1     -45.109 -52.234  15.754  1.00  0.00     0.021 C 
HETATM   22  C   UNL     1     -45.874 -51.106  16.419  1.00  0.00     0.007 C 
ENDBRANCH  20  21
BRANCH  20  23
HETATM   23  C   UNL     1     -46.437 -51.409  13.669  1.00  0.00     0.129 C 
BRANCH  23  24
HETATM   24  C   UNL     1     -46.853 -51.747  12.247  1.00  0.00    -0.076 C 
BRANCH  24  25
HETATM   25  N   UNL     1     -47.197 -52.027  11.067  1.00  0.00    -0.370 N 
ATOM     26  HN2 UNL     1     -46.909 -51.792  12.017  1.00  0.00     0.165 HD
ATOM     27  HN1 UNL     1     -47.476 -52.255  10.113  1.00  0.00     0.165 HD
ENDBRANCH  24  25
ENDBRANCH  23  24
ENDBRANCH  20  23
ENDBRANCH   1  20
TORSDOF 7
ENDMDL
MODEL 2
REMARK VINA RESULT:      -6.5      1.262      1.973
REMARK  7 active torsions:
REMARK  status: ('A' for Active; 'I' for Inactive)
REMARK    1  A    between atoms: C_2  and  C_3 
REMARK    2  A    between atoms: C_3  and  C_4 
REMARK    3  A    between atoms: C_3  and  N_9 
REMARK    4  A    between atoms: C_4  and  C_5 
REMARK    5  A    between atoms: C_5  and  N_6 
REMARK       I    between atoms: N_9  and  C_10 
REMARK       I    between atoms: C_10  and  N_12 
REMARK    6  A    between atoms: N_12  and  C_13 
REMARK    7  A    between atoms: N_17  and  C_20 
ROOT
HETATM    1  N   UNL     1     -44.098 -52.655  13.616  1.00  0.00    -0.337 N 
HETATM    2  C   UNL     1     -43.860 -53.741  12.833  1.00  0.00     0.334 C 
HETATM    3  O   UNL     1     -44.732 -54.562  12.553  1.00  0.00    -0.246 OA
HETATM    4  N   UNL     1     -42.591 -53.896  12.385  1.00  0.00    -0.140 N 
HETATM    5  H   UNL     1     -43.338 -51.989  13.701  1.00  0.00     0.164 HD
HETATM    6  H   UNL     1     -42.402 -54.717  11.835  1.00  0.00     0.189 HD
ENDROOT
BRANCH   4   7
HETATM    7  C   UNL     1     -41.567 -52.999  12.441  1.00  0.00     0.702 C 
HETATM    8  N   UNL     1     -40.769 -52.796  13.535  1.00  0.00    -0.185 N 
HETATM    9  C   UNL     1     -40.105 -51.699  13.222  1.00  0.00     0.218 C 
ATOM     10  HN  UNL     1     -40.703 -53.357  14.386  1.00  0.00     0.185 HD
HETATM   11  N   UNL     1     -40.506 -51.266  11.997  1.00  0.00    -0.268 N 
HETATM   12  N   UNL     1     -41.335 -52.168  11.431  1.00  0.00    -0.128 N 
ATOM     13  HN  UNL     1     -41.692 -52.201  10.477  1.00  0.00     0.206 HD
BRANCH  11  14
HETATM   14  C   UNL     1     -40.341 -49.977  11.332  1.00  0.00     0.109 C 
HETATM   15  C   UNL     1     -39.157 -49.104  11.789  1.00  0.00     0.027 C 
HETATM   16  C   UNL     1     -39.357 -48.413  13.145  1.00  0.00     0.002 C 
HETATM   17  C   UNL     1     -40.736 -47.779  13.324  1.00  0.00     0.000 C 
HETATM   18  C   UNL     1     -41.864 -48.703  12.893  1.00  0.00     0.002 C 
HETATM   19  C   UNL     1     -41.643 -49.154  11.450  1.00  0.00     0.027 C 
ENDBRANCH  11  14
ENDBRANCH   4   7
BRANCH   1  20
HETATM   20  C   UNL     1     -45.393 -52.352  14.204  1.00  0.00     0.097 C 
BRANCH  20  21
HETATM   21  C   UNL     1     -45.186 -52.102  15.707  1.00  0.00     0.021 C 
HETATM   22  C   UNL     1     -46.106 -51.045  16.287  1.00  0.00     0.007 C 
ENDBRANCH  20  21
BRANCH  20  23
HETATM   23  C   UNL     1     -46.134 -51.243  13.436  1.00  0.00     0.129 C 
BRANCH  23  24
HETATM   24  C   UNL     1     -46.745 -51.717  12.128  1.00  0.00    -0.076 C 
BRANCH  24  25
HETATM   25  N   UNL     1     -47.252 -52.109  11.043  1.00  0.00    -0.370 N 
ATOM     26  HN2 UNL     1     -46.831 -51.790  11.915  1.00  0.00     0.165 HD
ATOM     27  HN1 UNL     1     -47.663 -52.428  10.165  1.00  0.00     0.165 HD
ENDBRANCH  24  25
ENDBRANCH  23  24
ENDBRANCH  20  23
ENDBRANCH   1  20
TORSDOF 7
ENDMDL
MODEL 3
REMARK VINA RESULT:      -6.4      3.695      5.643
REMARK  7 active torsions:
REMARK  status: ('A' for Active; 'I' for Inactive)
REMARK    1  A    between atoms: C_2  and  C_3 
REMARK    2  A    between atoms: C_3  and  C_4 
REMARK    3  A    between atoms: C_3  and  N_9 
REMARK    4  A    between atoms: C_4  and  C_5 
REMARK    5  A    between atoms: C_5  and  N_6 
REMARK       I    between atoms: N_9  and  C_10 
REMARK       I    between atoms: C_10  and  N_12 
REMARK    6  A    between atoms: N_12  and  C_13 
REMARK    7  A    between atoms: N_17  and  C_20 
ROOT
HETATM    1  N   UNL     1     -44.228 -50.706  13.167  1.00  0.00    -0.337 N 
HETATM    2  C   UNL     1     -43.518 -49.884  13.985  1.00  0.00     0.334 C 
HETATM    3  O   UNL     1     -43.425 -50.071  15.197  1.00  0.00    -0.246 OA
HETATM    4  N   UNL     1     -42.926 -48.815  13.401  1.00  0.00    -0.140 N 
HETATM    5  H   UNL     1     -44.157 -50.519  12.173  1.00  0.00     0.164 HD
HETATM    6  H   UNL     1     -42.430 -48.184  14.008  1.00  0.00     0.189 HD
ENDROOT
BRANCH   4   7
HETATM    7  C   UNL     1     -42.772 -48.566  12.070  1.00  0.00     0.702 C 
HETATM    8  N   UNL     1     -41.574 -48.589  11.407  1.00  0.00    -0.185 N 
HETATM    9  C   UNL     1     -41.871 -48.058  10.235  1.00  0.00     0.218 C 
ATOM     10  HN  UNL     1     -40.672 -48.932  11.738  1.00  0.00     0.185 HD
HETATM   11  N   UNL     1     -43.188 -47.725  10.213  1.00  0.00    -0.268 N 
HETATM   12  N   UNL     1     -43.802 -48.174  11.328  1.00  0.00    -0.128 N 
ATOM     13  HN  UNL     1     -44.798 -48.205  11.545  1.00  0.00     0.206 HD
BRANCH  11  14
HETATM   14  C   UNL     1     -43.944 -46.849   9.323  1.00  0.00     0.109 C 
HETATM   15  C   UNL     1     -45.477 -47.000   9.336  1.00  0.00     0.027 C 
HETATM   16  C   UNL     1     -46.005 -48.243   8.609  1.00  0.00     0.002 C 
HETATM   17  C   UNL     1     -45.340 -48.505   7.258  1.00  0.00     0.000 C 
HETATM   18  C   UNL     1     -43.826 -48.380   7.318  1.00  0.00     0.002 C 
HETATM   19  C   UNL     1     -43.439 -47.010   7.872  1.00  0.00     0.027 C 
ENDBRANCH  11  14
ENDBRANCH   4   7
BRANCH   1  20
HETATM   20  C   UNL     1     -44.949 -51.880  13.631  1.00  0.00     0.097 C 
BRANCH  20  21
HETATM   21  C   UNL     1     -46.442 -51.519  13.715  1.00  0.00     0.021 C 
HETATM   22  C   UNL     1     -46.973 -51.426  15.134  1.00  0.00     0.007 C 
ENDBRANCH  20  21
BRANCH  20  23
HETATM   23  C   UNL     1     -44.609 -53.134  12.807  1.00  0.00     0.129 C 
BRANCH  23  24
HETATM   24  C   UNL     1     -45.269 -54.399  13.328  1.00  0.00    -0.076 C 
BRANCH  24  25
HETATM   25  N   UNL     1     -45.817 -55.449  13.761  1.00  0.00    -0.370 N 
ATOM     26  HN2 UNL     1     -45.386 -54.595  13.408  1.00  0.00     0.165 HD
ATOM     27  HN1 UNL     1     -46.260 -56.299  14.111  1.00  0.00     0.165 HD
ENDBRANCH  24  25
ENDBRANCH  23  24
ENDBRANCH  20  23
ENDBRANCH   1  20
TORSDOF 7
ENDMDL
MODEL 4
REMARK VINA RESULT:      -6.4      2.184      7.096
REMARK  7 active torsions:
REMARK  status: ('A' for Active; 'I' for Inactive)
REMARK    1  A    between atoms: C_2  and  C_3 
REMARK    2  A    between atoms: C_3  and  C_4 
REMARK    3  A    between atoms: C_3  and  N_9 
REMARK    4  A    between atoms: C_4  and  C_5 
REMARK    5  A    between atoms: C_5  and  N_6 
REMARK       I    between atoms: N_9  and  C_10 
REMARK       I    between atoms: C_10  and  N_12 
REMARK    6  A    between atoms: N_12  and  C_13 
REMARK    7  A    between atoms: N_17  and  C_20 
ROOT
HETATM    1  N   UNL     1     -39.946 -49.856  12.366  1.00  0.00    -0.337 N 
HETATM    2  C   UNL     1     -40.983 -49.424  11.600  1.00  0.00     0.334 C 
HETATM    3  O   UNL     1     -40.884 -48.482  10.816  1.00  0.00    -0.246 OA
HETATM    4  N   UNL     1     -42.161 -50.074  11.758  1.00  0.00    -0.140 N 
HETATM    5  H   UNL     1     -40.106 -50.702  12.902  1.00  0.00     0.164 HD
HETATM    6  H   UNL     1     -42.941 -49.735  11.220  1.00  0.00     0.189 HD
ENDROOT
BRANCH   4   7
HETATM    7  C   UNL     1     -42.393 -51.237  12.429  1.00  0.00     0.702 C 
HETATM    8  N   UNL     1     -42.463 -52.474  11.844  1.00  0.00    -0.185 N 
HETATM    9  C   UNL     1     -42.938 -53.236  12.812  1.00  0.00     0.218 C 
ATOM     10  HN  UNL     1     -42.210 -52.740  10.892  1.00  0.00     0.185 HD
HETATM   11  N   UNL     1     -43.151 -52.477  13.918  1.00  0.00    -0.268 N 
HETATM   12  N   UNL     1     -42.674 -51.228  13.727  1.00  0.00    -0.128 N 
ATOM     13  HN  UNL     1     -42.559 -50.474  14.404  1.00  0.00     0.206 HD
BRANCH  11  14
HETATM   14  C   UNL     1     -43.936 -52.731  15.123  1.00  0.00     0.109 C 
HETATM   15  C   UNL     1     -44.696 -54.070  15.187  1.00  0.00     0.027 C 
HETATM   16  C   UNL     1     -45.958 -54.132  14.316  1.00  0.00     0.002 C 
HETATM   17  C   UNL     1     -46.835 -52.884  14.399  1.00  0.00     0.000 C 
HETATM   18  C   UNL     1     -46.033 -51.597  14.290  1.00  0.00     0.002 C 
HETATM   19  C   UNL     1     -44.936 -51.577  15.353  1.00  0.00     0.027 C 
ENDBRANCH  11  14
ENDBRANCH   4   7
BRANCH   1  20
HETATM   20  C   UNL     1     -38.622 -49.254  12.345  1.00  0.00     0.097 C 
BRANCH  20  21
HETATM   21  C   UNL     1     -38.417 -48.508  13.674  1.00  0.00     0.021 C 
HETATM   22  C   UNL     1     -38.964 -47.093  13.676  1.00  0.00     0.007 C 
ENDBRANCH  20  21
BRANCH  20  23
HETATM   23  C   UNL     1     -37.529 -50.269  11.971  1.00  0.00     0.129 C 
BRANCH  23  24
HETATM   24  C   UNL     1     -37.106 -50.196  10.513  1.00  0.00    -0.076 C 
BRANCH  24  25
HETATM   25  N   UNL     1     -36.756 -50.135   9.304  1.00  0.00    -0.370 N 
ATOM     26  HN2 UNL     1     -37.050 -50.176  10.279  1.00  0.00     0.165 HD
ATOM     27  HN1 UNL     1     -36.472 -50.085   8.325  1.00  0.00     0.165 HD
ENDBRANCH  24  25
ENDBRANCH  23  24
ENDBRANCH  20  23
ENDBRANCH   1  20
TORSDOF 7
ENDMDL
MODEL 5
REMARK VINA RESULT:      -6.2      2.798      6.804
REMARK  7 active torsions:
REMARK  status: ('A' for Active; 'I' for Inactive)
REMARK    1  A    between atoms: C_2  and  C_3 
REMARK    2  A    between atoms: C_3  and  C_4 
REMARK    3  A    between atoms: C_3  and  N_9 
REMARK    4  A    between atoms: C_4  and  C_5 
REMARK    5  A    between atoms: C_5  and  N_6 
REMARK       I    between atoms: N_9  and  C_10 
REMARK       I    between atoms: C_10  and  N_12 
REMARK    6  A    between atoms: N_12  and  C_13 
REMARK    7  A    between atoms: N_17  and  C_20 
ROOT
HETATM    1  N   UNL     1     -42.035 -49.596  11.517  1.00  0.00    -0.337 N 
HETATM    2  C   UNL     1     -40.957 -50.383  11.260  1.00  0.00     0.334 C 
HETATM    3  O   UNL     1     -39.969 -49.980  10.647  1.00  0.00    -0.246 OA
HETATM    4  N   UNL     1     -41.027 -51.664  11.695  1.00  0.00    -0.140 N 
HETATM    5  H   UNL     1     -42.749 -49.995  12.115  1.00  0.00     0.164 HD
HETATM    6  H   UNL     1     -40.247 -52.261  11.476  1.00  0.00     0.189 HD
ENDROOT
BRANCH   4   7
HETATM    7  C   UNL     1     -41.946 -52.213  12.538  1.00  0.00     0.702 C 
HETATM    8  N   UNL     1     -41.642 -53.022  13.601  1.00  0.00    -0.185 N 
HETATM    9  C   UNL     1     -42.820 -53.500  13.959  1.00  0.00     0.218 C 
ATOM     10  HN  UNL     1     -40.728 -53.210  14.015  1.00  0.00     0.185 HD
HETATM   11  N   UNL     1     -43.777 -53.003  13.133  1.00  0.00    -0.268 N 
HETATM   12  N   UNL     1     -43.247 -52.071  12.312  1.00  0.00    -0.128 N 
ATOM     13  HN  UNL     1     -43.723 -51.426  11.681  1.00  0.00     0.206 HD
BRANCH  11  14
HETATM   14  C   UNL     1     -45.150 -53.432  12.884  1.00  0.00     0.109 C 
HETATM   15  C   UNL     1     -46.173 -52.329  12.552  1.00  0.00     0.027 C 
HETATM   16  C   UNL     1     -46.622 -51.489  13.756  1.00  0.00     0.002 C 
HETATM   17  C   UNL     1     -46.936 -52.309  15.006  1.00  0.00     0.000 C 
HETATM   18  C   UNL     1     -45.871 -53.353  15.303  1.00  0.00     0.002 C 
HETATM   19  C   UNL     1     -45.671 -54.252  14.084  1.00  0.00     0.027 C 
ENDBRANCH  11  14
ENDBRANCH   4   7
BRANCH   1  20
HETATM   20  C   UNL     1     -42.139 -48.208  11.097  1.00  0.00     0.097 C 
BRANCH  20  21
HETATM   21  C   UNL     1     -43.613 -47.785  11.212  1.00  0.00     0.021 C 
HETATM   22  C   UNL     1     -44.246 -47.396   9.889  1.00  0.00     0.007 C 
ENDBRANCH  20  21
BRANCH  20  23
HETATM   23  C   UNL     1     -41.124 -47.305  11.820  1.00  0.00     0.129 C 
BRANCH  23  24
HETATM   24  C   UNL     1     -40.317 -46.426  10.879  1.00  0.00    -0.076 C 
BRANCH  24  25
HETATM   25  N   UNL     1     -39.647 -45.697  10.099  1.00  0.00    -0.370 N 
ATOM     26  HN2 UNL     1     -40.182 -46.297  10.727  1.00  0.00     0.165 HD
ATOM     27  HN1 UNL     1     -39.106 -45.107   9.467  1.00  0.00     0.165 HD
ENDBRANCH  24  25
ENDBRANCH  23  24
ENDBRANCH  20  23
ENDBRANCH   1  20
TORSDOF 7
ENDMDL
MODEL 6
REMARK VINA RESULT:      -6.1      1.800      2.715
REMARK  7 active torsions:
REMARK  status: ('A' for Active; 'I' for Inactive)
REMARK    1  A    between atoms: C_2  and  C_3 
REMARK    2  A    between atoms: C_3  and  C_4 
REMARK    3  A    between atoms: C_3  and  N_9 
REMARK    4  A    between atoms: C_4  and  C_5 
REMARK    5  A    between atoms: C_5  and  N_6 
REMARK       I    between atoms: N_9  and  C_10 
REMARK       I    between atoms: C_10  and  N_12 
REMARK    6  A    between atoms: N_12  and  C_13 
REMARK    7  A    between atoms: N_17  and  C_20 
ROOT
HETATM    1  N   UNL     1     -44.507 -52.892  13.955  1.00  0.00    -0.337 N 
HETATM    2  C   UNL     1     -44.666 -52.968  12.606  1.00  0.00     0.334 C 
HETATM    3  O   UNL     1     -45.771 -52.999  12.068  1.00  0.00    -0.246 OA
HETATM    4  N   UNL     1     -43.532 -53.035  11.868  1.00  0.00    -0.140 N 
HETATM    5  H   UNL     1     -43.557 -52.770  14.288  1.00  0.00     0.164 HD
HETATM    6  H   UNL     1     -43.645 -53.128  10.873  1.00  0.00     0.189 HD
ENDROOT
BRANCH   4   7
HETATM    7  C   UNL     1     -42.250 -52.826  12.280  1.00  0.00     0.702 C 
HETATM    8  N   UNL     1     -41.406 -53.807  12.728  1.00  0.00    -0.185 N 
HETATM    9  C   UNL     1     -40.396 -53.124  13.234  1.00  0.00     0.218 C 
ATOM     10  HN  UNL     1     -41.528 -54.819  12.681  1.00  0.00     0.185 HD
HETATM   11  N   UNL     1     -40.641 -51.794  13.100  1.00  0.00    -0.268 N 
HETATM   12  N   UNL     1     -41.756 -51.596  12.366  1.00  0.00    -0.128 N 
ATOM     13  HN  UNL     1     -42.124 -50.727  11.979  1.00  0.00     0.206 HD
BRANCH  11  14
HETATM   14  C   UNL     1     -40.034 -50.634  13.748  1.00  0.00     0.109 C 
HETATM   15  C   UNL     1     -40.167 -49.283  13.020  1.00  0.00     0.027 C 
HETATM   16  C   UNL     1     -39.251 -49.119  11.800  1.00  0.00     0.002 C 
HETATM   17  C   UNL     1     -37.816 -49.593  12.030  1.00  0.00     0.000 C 
HETATM   18  C   UNL     1     -37.751 -50.949  12.716  1.00  0.00     0.002 C 
HETATM   19  C   UNL     1     -38.539 -50.909  14.023  1.00  0.00     0.027 C 
ENDBRANCH  11  14
ENDBRANCH   4   7
BRANCH   1  20
HETATM   20  C   UNL     1     -45.614 -52.843  14.896  1.00  0.00     0.097 C 
BRANCH  20  21
HETATM   21  C   UNL     1     -45.144 -53.476  16.217  1.00  0.00     0.021 C 
HETATM   22  C   UNL     1     -43.848 -54.255  16.097  1.00  0.00     0.007 C 
ENDBRANCH  20  21
BRANCH  20  23
HETATM   23  C   UNL     1     -46.219 -51.432  15.008  1.00  0.00     0.129 C 
BRANCH  23  24
HETATM   24  C   UNL     1     -47.258 -51.304  16.109  1.00  0.00    -0.076 C 
BRANCH  24  25
HETATM   25  N   UNL     1     -48.120 -51.198  17.023  1.00  0.00    -0.370 N 
ATOM     26  HN2 UNL     1     -47.419 -51.272  16.286  1.00  0.00     0.165 HD
ATOM     27  HN1 UNL     1     -48.818 -51.113  17.763  1.00  0.00     0.165 HD
ENDBRANCH  24  25
ENDBRANCH  23  24
ENDBRANCH  20  23
ENDBRANCH   1  20
TORSDOF 7
ENDMDL
MODEL 7
REMARK VINA RESULT:      -6.1      3.886      5.658
REMARK  7 active torsions:
REMARK  status: ('A' for Active; 'I' for Inactive)
REMARK    1  A    between atoms: C_2  and  C_3 
REMARK    2  A    between atoms: C_3  and  C_4 
REMARK    3  A    between atoms: C_3  and  N_9 
REMARK    4  A    between atoms: C_4  and  C_5 
REMARK    5  A    between atoms: C_5  and  N_6 
REMARK       I    between atoms: N_9  and  C_10 
REMARK       I    between atoms: C_10  and  N_12 
REMARK    6  A    between atoms: N_12  and  C_13 
REMARK    7  A    between atoms: N_17  and  C_20 
ROOT
HETATM    1  N   UNL     1     -39.229 -50.831  13.010  1.00  0.00    -0.337 N 
HETATM    2  C   UNL     1     -38.286 -50.565  12.066  1.00  0.00     0.334 C 
HETATM    3  O   UNL     1     -37.262 -51.233  11.942  1.00  0.00    -0.246 OA
HETATM    4  N   UNL     1     -38.517 -49.495  11.268  1.00  0.00    -0.140 N 
HETATM    5  H   UNL     1     -40.080 -50.283  12.960  1.00  0.00     0.164 HD
HETATM    6  H   UNL     1     -37.806 -49.272  10.592  1.00  0.00     0.189 HD
ENDROOT
BRANCH   4   7
HETATM    7  C   UNL     1     -39.666 -48.773  11.145  1.00  0.00     0.702 C 
HETATM    8  N   UNL     1     -40.860 -49.279  10.702  1.00  0.00    -0.185 N 
HETATM    9  C   UNL     1     -41.593 -48.196  10.517  1.00  0.00     0.218 C 
ATOM     10  HN  UNL     1     -41.120 -50.254  10.552  1.00  0.00     0.185 HD
HETATM   11  N   UNL     1     -40.857 -47.097  10.827  1.00  0.00    -0.268 N 
HETATM   12  N   UNL     1     -39.673 -47.463  11.362  1.00  0.00    -0.128 N 
ATOM     13  HN  UNL     1     -38.967 -46.884  11.815  1.00  0.00     0.206 HD
BRANCH  11  14
HETATM   14  C   UNL     1     -41.056 -45.685  10.510  1.00  0.00     0.109 C 
HETATM   15  C   UNL     1     -39.937 -44.714  10.931  1.00  0.00     0.027 C 
HETATM   16  C   UNL     1     -39.890 -44.402  12.433  1.00  0.00     0.002 C 
HETATM   17  C   UNL     1     -41.258 -44.123  13.054  1.00  0.00     0.000 C 
HETATM   18  C   UNL     1     -42.310 -45.137  12.633  1.00  0.00     0.002 C 
HETATM   19  C   UNL     1     -42.393 -45.197  11.109  1.00  0.00     0.027 C 
ENDBRANCH  11  14
ENDBRANCH   4   7
BRANCH   1  20
HETATM   20  C   UNL     1     -39.127 -51.921  13.966  1.00  0.00     0.097 C 
BRANCH  20  21
HETATM   21  C   UNL     1     -39.248 -51.326  15.380  1.00  0.00     0.021 C 
HETATM   22  C   UNL     1     -40.066 -50.049  15.441  1.00  0.00     0.007 C 
ENDBRANCH  20  21
BRANCH  20  23
HETATM   23  C   UNL     1     -40.092 -53.073  13.640  1.00  0.00     0.129 C 
BRANCH  23  24
HETATM   24  C   UNL     1     -40.823 -52.896  12.319  1.00  0.00    -0.076 C 
BRANCH  24  25
HETATM   25  N   UNL     1     -41.428 -52.748  11.223  1.00  0.00    -0.370 N 
ATOM     26  HN2 UNL     1     -40.932 -52.856  12.108  1.00  0.00     0.165 HD
ATOM     27  HN1 UNL     1     -41.918 -52.629  10.336  1.00  0.00     0.165 HD
ENDBRANCH  24  25
ENDBRANCH  23  24
ENDBRANCH  20  23
ENDBRANCH   1  20
TORSDOF 7
ENDMDL
MODEL 8
REMARK VINA RESULT:      -6.0      3.809      5.871
REMARK  7 active torsions:
REMARK  status: ('A' for Active; 'I' for Inactive)
REMARK    1  A    between atoms: C_2  and  C_3 
REMARK    2  A    between atoms: C_3  and  C_4 
REMARK    3  A    between atoms: C_3  and  N_9 
REMARK    4  A    between atoms: C_4  and  C_5 
REMARK    5  A    between atoms: C_5  and  N_6 
REMARK       I    between atoms: N_9  and  C_10 
REMARK       I    between atoms: C_10  and  N_12 
REMARK    6  A    between atoms: N_12  and  C_13 
REMARK    7  A    between atoms: N_17  and  C_20 
ROOT
HETATM    1  N   UNL     1     -41.350 -46.635  11.576  1.00  0.00    -0.337 N 
HETATM    2  C   UNL     1     -41.932 -47.000  10.402  1.00  0.00     0.334 C 
HETATM    3  O   UNL     1     -42.352 -46.182   9.585  1.00  0.00    -0.246 OA
HETATM    4  N   UNL     1     -42.054 -48.330  10.177  1.00  0.00    -0.140 N 
HETATM    5  H   UNL     1     -40.948 -47.384  12.128  1.00  0.00     0.164 HD
HETATM    6  H   UNL     1     -42.517 -48.605   9.326  1.00  0.00     0.189 HD
ENDROOT
BRANCH   4   7
HETATM    7  C   UNL     1     -41.485 -49.354  10.872  1.00  0.00     0.702 C 
HETATM    8  N   UNL     1     -42.109 -50.063  11.864  1.00  0.00    -0.185 N 
HETATM    9  C   UNL     1     -41.122 -50.759  12.400  1.00  0.00     0.218 C 
ATOM     10  HN  UNL     1     -43.095 -50.056  12.125  1.00  0.00     0.185 HD
HETATM   11  N   UNL     1     -39.962 -50.462  11.757  1.00  0.00    -0.268 N 
HETATM   12  N   UNL     1     -40.208 -49.673  10.690  1.00  0.00    -0.128 N 
ATOM     13  HN  UNL     1     -39.577 -49.393   9.939  1.00  0.00     0.206 HD
BRANCH  11  14
HETATM   14  C   UNL     1     -38.569 -50.689  12.132  1.00  0.00     0.109 C 
HETATM   15  C   UNL     1     -38.319 -51.437  13.456  1.00  0.00     0.027 C 
HETATM   16  C   UNL     1     -38.554 -50.599  14.720  1.00  0.00     0.002 C 
HETATM   17  C   UNL     1     -37.967 -49.189  14.650  1.00  0.00     0.000 C 
HETATM   18  C   UNL     1     -38.281 -48.489  13.338  1.00  0.00     0.002 C 
HETATM   19  C   UNL     1     -37.808 -49.346  12.165  1.00  0.00     0.027 C 
ENDBRANCH  11  14
ENDBRANCH   4   7
BRANCH   1  20
HETATM   20  C   UNL     1     -41.166 -45.254  11.990  1.00  0.00     0.097 C 
BRANCH  20  21
HETATM   21  C   UNL     1     -41.691 -45.115  13.429  1.00  0.00     0.021 C 
HETATM   22  C   UNL     1     -43.037 -45.777  13.659  1.00  0.00     0.007 C 
ENDBRANCH  20  21
BRANCH  20  23
HETATM   23  C   UNL     1     -39.728 -44.762  11.751  1.00  0.00     0.129 C 
BRANCH  23  24
HETATM   24  C   UNL     1     -39.313 -44.789  10.289  1.00  0.00    -0.076 C 
BRANCH  24  25
HETATM   25  N   UNL     1     -38.969 -44.812   9.077  1.00  0.00    -0.370 N 
ATOM     26  HN2 UNL     1     -39.260 -44.791  10.054  1.00  0.00     0.165 HD
ATOM     27  HN1 UNL     1     -38.690 -44.831   8.095  1.00  0.00     0.165 HD
ENDBRANCH  24  25
ENDBRANCH  23  24
ENDBRANCH  20  23
ENDBRANCH   1  20
TORSDOF 7
ENDMDL
MODEL 9
REMARK VINA RESULT:      -6.0      2.785      6.267
REMARK  7 active torsions:
REMARK  status: ('A' for Active; 'I' for Inactive)
REMARK    1  A    between atoms: C_2  and  C_3 
REMARK    2  A    between atoms: C_3  and  C_4 
REMARK    3  A    between atoms: C_3  and  N_9 
REMARK    4  A    between atoms: C_4  and  C_5 
REMARK    5  A    between atoms: C_5  and  N_6 
REMARK       I    between atoms: N_9  and  C_10 
REMARK       I    between atoms: C_10  and  N_12 
REMARK    6  A    between atoms: N_12  and  C_13 
REMARK    7  A    between atoms: N_17  and  C_20 
ROOT
HETATM    1  N   UNL     1     -42.044 -49.441  11.492  1.00  0.00    -0.337 N 
HETATM    2  C   UNL     1     -40.897 -50.166  11.398  1.00  0.00     0.334 C 
HETATM    3  O   UNL     1     -39.827 -49.673  11.044  1.00  0.00    -0.246 OA
HETATM    4  N   UNL     1     -40.990 -51.485  11.691  1.00  0.00    -0.140 N 
HETATM    5  H   UNL     1     -42.845 -49.920  11.889  1.00  0.00     0.164 HD
HETATM    6  H   UNL     1     -40.152 -52.032  11.587  1.00  0.00     0.189 HD
ENDROOT
BRANCH   4   7
HETATM    7  C   UNL     1     -42.033 -52.143  12.269  1.00  0.00     0.702 C 
HETATM    8  N   UNL     1     -43.007 -52.818  11.581  1.00  0.00    -0.185 N 
HETATM    9  C   UNL     1     -43.909 -53.071  12.511  1.00  0.00     0.218 C 
ATOM     10  HN  UNL     1     -43.029 -53.065  10.591  1.00  0.00     0.185 HD
HETATM   11  N   UNL     1     -43.490 -52.556  13.696  1.00  0.00    -0.268 N 
HETATM   12  N   UNL     1     -42.230 -52.085  13.582  1.00  0.00    -0.128 N 
ATOM     13  HN  UNL     1     -41.594 -51.767  14.313  1.00  0.00     0.206 HD
BRANCH  11  14
HETATM   14  C   UNL     1     -44.214 -52.277  14.934  1.00  0.00     0.109 C 
HETATM   15  C   UNL     1     -44.759 -53.491  15.709  1.00  0.00     0.027 C 
HETATM   16  C   UNL     1     -46.005 -54.139  15.091  1.00  0.00     0.002 C 
HETATM   17  C   UNL     1     -47.063 -53.138  14.627  1.00  0.00     0.000 C 
HETATM   18  C   UNL     1     -46.468 -51.984  13.834  1.00  0.00     0.002 C 
HETATM   19  C   UNL     1     -45.376 -51.299  14.654  1.00  0.00     0.027 C 
ENDBRANCH  11  14
ENDBRANCH   4   7
BRANCH   1  20
HETATM   20  C   UNL     1     -42.130 -48.022  11.187  1.00  0.00     0.097 C 
BRANCH  20  21
HETATM   21  C   UNL     1     -42.911 -47.866   9.871  1.00  0.00     0.021 C 
HETATM   22  C   UNL     1     -44.365 -47.476  10.062  1.00  0.00     0.007 C 
ENDBRANCH  20  21
BRANCH  20  23
HETATM   23  C   UNL     1     -42.654 -47.202  12.378  1.00  0.00     0.129 C 
BRANCH  23  24
HETATM   24  C   UNL     1     -42.859 -48.027  13.638  1.00  0.00    -0.076 C 
BRANCH  24  25
HETATM   25  N   UNL     1     -43.029 -48.711  14.683  1.00  0.00    -0.370 N 
ATOM     26  HN2 UNL     1     -42.897 -48.167  13.831  1.00  0.00     0.165 HD
ATOM     27  HN1 UNL     1     -43.165 -49.264  15.530  1.00  0.00     0.165 HD
ENDBRANCH  24  25
ENDBRANCH  23  24
ENDBRANCH  20  23
ENDBRANCH   1  20
TORSDOF 7
ENDMDL
