MODEL 1
REMARK VINA RESULT:      -6.9      0.000      0.000
REMARK  5 active torsions:
REMARK  status: ('A' for Active; 'I' for Inactive)
REMARK    1  A    between atoms: N_4  and  C_5 
REMARK    2  A    between atoms: C_5  and  C_6 
REMARK    3  A    between atoms: C_6  and  N_7 
REMARK       I    between atoms: N_7  and  C_8 
REMARK       I    between atoms: C_8  and  N_10 
REMARK    4  A    between atoms: N_10  and  C_11 
REMARK    5  A    between atoms: C_17  and  N_18 
ROOT
HETATM    1  N   UNL     1     -40.664 -50.300  11.101  1.00  0.00    -0.341 N 
HETATM    2  C   UNL     1     -41.573 -49.263  11.123  1.00  0.00     0.320 C 
HETATM    3  O   UNL     1     -42.386 -49.098  12.018  1.00  0.00    -0.247 OA
HETATM    4  N   UNL     1     -41.455 -48.491   9.984  1.00  0.00    -0.306 N 
HETATM    5  H   UNL     1     -39.812 -50.115  10.593  1.00  0.00     0.164 HD
HETATM    6  H   UNL     1     -41.103 -48.975   9.179  1.00  0.00     0.171 HD
ENDROOT
BRANCH   1   7
HETATM    7  C   UNL     1     -40.577 -51.218  12.225  1.00  0.00     0.154 C 
BRANCH   7   8
HETATM    8  C   UNL     1     -41.453 -52.475  12.046  1.00  0.00     0.292 C 
BRANCH   8   9
HETATM    9  N   UNL     1     -42.710 -52.434  12.817  1.00  0.00     0.095 N 
HETATM   10  C   UNL     1     -42.519 -51.990  14.212  1.00  0.00     0.303 C 
HETATM   11  C   UNL     1     -43.849 -51.951  14.993  1.00  0.00     0.146 C 
HETATM   12  C   UNL     1     -44.782 -50.839  14.513  1.00  0.00     0.041 C 
HETATM   13  O   UNL     1     -44.496 -53.233  14.970  1.00  0.00    -0.378 OA
HETATM   14  C   UNL     1     -44.692 -53.728  13.635  1.00  0.00     0.146 C 
HETATM   15  C   UNL     1     -43.363 -53.764  12.844  1.00  0.00     0.303 C 
HETATM   16  C   UNL     1     -45.301 -55.119  13.759  1.00  0.00     0.041 C 
ENDBRANCH   8   9
ENDBRANCH   7   8
ENDBRANCH   1   7
BRANCH   4  17
HETATM   17  C   UNL     1     -42.319 -47.403   9.720  1.00  0.00     0.080 A 
HETATM   18  C   UNL     1     -43.404 -47.643   8.860  1.00  0.00     0.035 A 
HETATM   19  C   UNL     1     -44.365 -46.671   8.667  1.00  0.00     0.019 A 
HETATM   20  C   UNL     1     -44.206 -45.480   9.334  1.00  0.00     0.090 A 
HETATM   21  N   UNL     1     -43.168 -45.216  10.160  1.00  0.00    -0.351 N 
HETATM   22  C   UNL     1     -42.199 -46.149  10.360  1.00  0.00     0.130 A 
ATOM     23  HN  UNL     1     -43.111 -44.315  10.633  1.00  0.00     0.166 HD
BRANCH  22  24
HETATM   24  N   UNL     1     -41.148 -45.763  11.172  1.00  0.00    -0.365 N 
HETATM   25  C   UNL     1     -39.978 -44.984  10.794  1.00  0.00     0.124 C 
HETATM   26  C   UNL     1     -39.377 -44.485  12.103  1.00  0.00     0.021 C 
HETATM   27  C   UNL     1     -40.540 -44.488  13.072  1.00  0.00     0.021 C 
HETATM   28  C   UNL     1     -41.391 -45.667  12.615  1.00  0.00     0.124 C 
ENDBRANCH  22  24
ENDBRANCH   4  17
TORSDOF 5
ENDMDL
MODEL 2
REMARK VINA RESULT:      -6.9      1.500      3.278
REMARK  5 active torsions:
REMARK  status: ('A' for Active; 'I' for Inactive)
REMARK    1  A    between atoms: N_4  and  C_5 
REMARK    2  A    between atoms: C_5  and  C_6 
REMARK    3  A    between atoms: C_6  and  N_7 
REMARK       I    between atoms: N_7  and  C_8 
REMARK       I    between atoms: C_8  and  N_10 
REMARK    4  A    between atoms: N_10  and  C_11 
REMARK    5  A    between atoms: C_17  and  N_18 
ROOT
HETATM    1  N   UNL     1     -40.653 -50.601  11.265  1.00  0.00    -0.341 N 
HETATM    2  C   UNL     1     -40.811 -49.327  11.769  1.00  0.00     0.320 C 
HETATM    3  O   UNL     1     -41.124 -49.093  12.925  1.00  0.00    -0.247 OA
HETATM    4  N   UNL     1     -40.613 -48.386  10.778  1.00  0.00    -0.306 N 
HETATM    5  H   UNL     1     -40.014 -50.681  10.488  1.00  0.00     0.164 HD
HETATM    6  H   UNL     1     -40.814 -48.702   9.847  1.00  0.00     0.171 HD
ENDROOT
BRANCH   1   7
HETATM    7  C   UNL     1     -40.770 -51.753  12.144  1.00  0.00     0.154 C 
BRANCH   7   8
HETATM    8  C   UNL     1     -42.078 -52.544  11.930  1.00  0.00     0.292 C 
BRANCH   8   9
HETATM    9  N   UNL     1     -42.601 -53.167  13.161  1.00  0.00     0.095 N 
HETATM   10  C   UNL     1     -41.671 -54.151  13.750  1.00  0.00     0.303 C 
HETATM   11  C   UNL     1     -42.239 -54.782  15.039  1.00  0.00     0.146 C 
HETATM   12  C   UNL     1     -42.308 -53.791  16.200  1.00  0.00     0.041 C 
HETATM   13  O   UNL     1     -43.513 -55.398  14.791  1.00  0.00    -0.378 OA
HETATM   14  C   UNL     1     -44.457 -54.490  14.196  1.00  0.00     0.146 C 
HETATM   15  C   UNL     1     -43.891 -53.849  12.907  1.00  0.00     0.303 C 
HETATM   16  C   UNL     1     -45.723 -55.288  13.909  1.00  0.00     0.041 C 
ENDBRANCH   8   9
ENDBRANCH   7   8
ENDBRANCH   1   7
BRANCH   4  17
HETATM   17  C   UNL     1     -40.786 -47.002  11.009  1.00  0.00     0.080 A 
HETATM   18  C   UNL     1     -39.738 -46.325  11.654  1.00  0.00     0.035 A 
HETATM   19  C   UNL     1     -39.777 -44.951  11.788  1.00  0.00     0.019 A 
HETATM   20  C   UNL     1     -40.873 -44.295  11.281  1.00  0.00     0.090 A 
HETATM   21  N   UNL     1     -41.902 -44.920  10.665  1.00  0.00    -0.351 N 
HETATM   22  C   UNL     1     -41.898 -46.274  10.529  1.00  0.00     0.130 A 
ATOM     23  HN  UNL     1     -42.684 -44.375  10.302  1.00  0.00     0.166 HD
BRANCH  22  24
HETATM   24  N   UNL     1     -43.023 -46.825   9.941  1.00  0.00    -0.365 N 
HETATM   25  C   UNL     1     -44.047 -47.637  10.581  1.00  0.00     0.124 C 
HETATM   26  C   UNL     1     -45.239 -47.616   9.630  1.00  0.00     0.021 C 
HETATM   27  C   UNL     1     -45.059 -46.342   8.834  1.00  0.00     0.021 C 
HETATM   28  C   UNL     1     -43.545 -46.191   8.727  1.00  0.00     0.124 C 
ENDBRANCH  22  24
ENDBRANCH   4  17
TORSDOF 5
ENDMDL
MODEL 3
REMARK VINA RESULT:      -6.6      1.984      7.923
REMARK  5 active torsions:
REMARK  status: ('A' for Active; 'I' for Inactive)
REMARK    1  A    between atoms: N_4  and  C_5 
REMARK    2  A    between atoms: C_5  and  C_6 
REMARK    3  A    between atoms: C_6  and  N_7 
REMARK       I    between atoms: N_7  and  C_8 
REMARK       I    between atoms: C_8  and  N_10 
REMARK    4  A    between atoms: N_10  and  C_11 
REMARK    5  A    between atoms: C_17  and  N_18 
ROOT
HETATM    1  N   UNL     1     -40.836 -50.946  11.230  1.00  0.00    -0.341 N 
HETATM    2  C   UNL     1     -41.143 -51.557  12.427  1.00  0.00     0.320 C 
HETATM    3  O   UNL     1     -40.638 -51.243  13.494  1.00  0.00    -0.247 OA
HETATM    4  N   UNL     1     -42.049 -52.581  12.231  1.00  0.00    -0.306 N 
HETATM    5  H   UNL     1     -41.567 -50.968  10.534  1.00  0.00     0.164 HD
HETATM    6  H   UNL     1     -42.019 -53.004  11.321  1.00  0.00     0.171 HD
ENDROOT
BRANCH   1   7
HETATM    7  C   UNL     1     -39.934 -49.806  11.202  1.00  0.00     0.154 C 
BRANCH   7   8
HETATM    8  C   UNL     1     -40.483 -48.585  11.970  1.00  0.00     0.292 C 
BRANCH   8   9
HETATM    9  N   UNL     1     -40.661 -47.388  11.126  1.00  0.00     0.095 N 
HETATM   10  C   UNL     1     -40.390 -46.128  11.847  1.00  0.00     0.303 C 
HETATM   11  C   UNL     1     -40.578 -44.893  10.940  1.00  0.00     0.146 C 
HETATM   12  C   UNL     1     -39.502 -44.787   9.859  1.00  0.00     0.041 C 
HETATM   13  O   UNL     1     -41.899 -44.864  10.378  1.00  0.00    -0.378 OA
HETATM   14  C   UNL     1     -42.228 -46.077   9.680  1.00  0.00     0.146 C 
HETATM   15  C   UNL     1     -42.037 -47.319  10.581  1.00  0.00     0.303 C 
HETATM   16  C   UNL     1     -43.673 -45.946   9.215  1.00  0.00     0.041 C 
ENDBRANCH   8   9
ENDBRANCH   7   8
ENDBRANCH   1   7
BRANCH   4  17
HETATM   17  C   UNL     1     -42.477 -53.419  13.286  1.00  0.00     0.080 A 
HETATM   18  C   UNL     1     -41.558 -54.369  13.761  1.00  0.00     0.035 A 
HETATM   19  C   UNL     1     -41.855 -55.125  14.877  1.00  0.00     0.019 A 
HETATM   20  C   UNL     1     -43.072 -54.914  15.481  1.00  0.00     0.090 A 
HETATM   21  N   UNL     1     -43.981 -54.015  15.041  1.00  0.00    -0.351 N 
HETATM   22  C   UNL     1     -43.722 -53.265  13.936  1.00  0.00     0.130 A 
ATOM     23  HN  UNL     1     -44.864 -53.899  15.538  1.00  0.00     0.166 HD
BRANCH  22  24
HETATM   24  N   UNL     1     -44.738 -52.419  13.529  1.00  0.00    -0.365 N 
HETATM   25  C   UNL     1     -45.705 -52.645  12.465  1.00  0.00     0.124 C 
HETATM   26  C   UNL     1     -46.828 -51.644  12.712  1.00  0.00     0.021 C 
HETATM   27  C   UNL     1     -46.740 -51.343  14.193  1.00  0.00     0.021 C 
HETATM   28  C   UNL     1     -45.249 -51.442  14.496  1.00  0.00     0.124 C 
ENDBRANCH  22  24
ENDBRANCH   4  17
TORSDOF 5
ENDMDL
MODEL 4
REMARK VINA RESULT:      -6.6      1.384      3.261
REMARK  5 active torsions:
REMARK  status: ('A' for Active; 'I' for Inactive)
REMARK    1  A    between atoms: N_4  and  C_5 
REMARK    2  A    between atoms: C_5  and  C_6 
REMARK    3  A    between atoms: C_6  and  N_7 
REMARK       I    between atoms: N_7  and  C_8 
REMARK       I    between atoms: C_8  and  N_10 
REMARK    4  A    between atoms: N_10  and  C_11 
REMARK    5  A    between atoms: C_17  and  N_18 
ROOT
HETATM    1  N   UNL     1     -40.885 -50.771  11.148  1.00  0.00    -0.341 N 
HETATM    2  C   UNL     1     -40.876 -49.484  11.645  1.00  0.00     0.320 C 
HETATM    3  O   UNL     1     -40.902 -49.222  12.837  1.00  0.00    -0.247 OA
HETATM    4  N   UNL     1     -40.883 -48.565  10.614  1.00  0.00    -0.306 N 
HETATM    5  H   UNL     1     -40.449 -50.886  10.245  1.00  0.00     0.164 HD
HETATM    6  H   UNL     1     -41.307 -48.886   9.763  1.00  0.00     0.171 HD
ENDROOT
BRANCH   1   7
HETATM    7  C   UNL     1     -40.834 -51.905  12.055  1.00  0.00     0.154 C 
BRANCH   7   8
HETATM    8  C   UNL     1     -42.225 -52.506  12.348  1.00  0.00     0.292 C 
BRANCH   8   9
HETATM    9  N   UNL     1     -43.022 -51.713  13.304  1.00  0.00     0.095 N 
HETATM   10  C   UNL     1     -42.627 -51.934  14.709  1.00  0.00     0.303 C 
HETATM   11  C   UNL     1     -43.472 -51.088  15.685  1.00  0.00     0.146 C 
HETATM   12  C   UNL     1     -43.172 -49.593  15.583  1.00  0.00     0.041 C 
HETATM   13  O   UNL     1     -44.873 -51.360  15.520  1.00  0.00    -0.378 OA
HETATM   14  C   UNL     1     -45.313 -51.181  14.163  1.00  0.00     0.146 C 
HETATM   15  C   UNL     1     -44.466 -52.021  13.178  1.00  0.00     0.303 C 
HETATM   16  C   UNL     1     -46.782 -51.583  14.113  1.00  0.00     0.041 C 
ENDBRANCH   8   9
ENDBRANCH   7   8
ENDBRANCH   1   7
BRANCH   4  17
HETATM   17  C   UNL     1     -40.950 -47.173  10.848  1.00  0.00     0.080 A 
HETATM   18  C   UNL     1     -39.841 -46.575  11.469  1.00  0.00     0.035 A 
HETATM   19  C   UNL     1     -39.776 -45.202  11.603  1.00  0.00     0.019 A 
HETATM   20  C   UNL     1     -40.832 -44.467  11.119  1.00  0.00     0.090 A 
HETATM   21  N   UNL     1     -41.917 -45.015  10.527  1.00  0.00    -0.351 N 
HETATM   22  C   UNL     1     -42.015 -46.364  10.392  1.00  0.00     0.130 A 
ATOM     23  HN  UNL     1     -42.665 -44.413  10.181  1.00  0.00     0.166 HD
BRANCH  22  24
HETATM   24  N   UNL     1     -43.190 -46.831   9.831  1.00  0.00    -0.365 N 
HETATM   25  C   UNL     1     -44.223 -47.628  10.475  1.00  0.00     0.124 C 
HETATM   26  C   UNL     1     -45.454 -47.503   9.583  1.00  0.00     0.021 C 
HETATM   27  C   UNL     1     -45.248 -46.197   8.846  1.00  0.00     0.021 C 
HETATM   28  C   UNL     1     -43.735 -46.110   8.676  1.00  0.00     0.124 C 
ENDBRANCH  22  24
ENDBRANCH   4  17
TORSDOF 5
ENDMDL
MODEL 5
REMARK VINA RESULT:      -6.5      2.108      7.894
REMARK  5 active torsions:
REMARK  status: ('A' for Active; 'I' for Inactive)
REMARK    1  A    between atoms: N_4  and  C_5 
REMARK    2  A    between atoms: C_5  and  C_6 
REMARK    3  A    between atoms: C_6  and  N_7 
REMARK       I    between atoms: N_7  and  C_8 
REMARK       I    between atoms: C_8  and  N_10 
REMARK    4  A    between atoms: N_10  and  C_11 
REMARK    5  A    between atoms: C_17  and  N_18 
ROOT
HETATM    1  N   UNL     1     -40.960 -50.917  11.163  1.00  0.00    -0.341 N 
HETATM    2  C   UNL     1     -41.366 -51.392  12.392  1.00  0.00     0.320 C 
HETATM    3  O   UNL     1     -41.228 -50.771  13.435  1.00  0.00    -0.247 OA
HETATM    4  N   UNL     1     -41.893 -52.663  12.271  1.00  0.00    -0.306 N 
HETATM    5  H   UNL     1     -41.475 -51.274  10.371  1.00  0.00     0.164 HD
HETATM    6  H   UNL     1     -41.539 -53.197  11.498  1.00  0.00     0.171 HD
ENDROOT
BRANCH   1   7
HETATM    7  C   UNL     1     -40.414 -49.575  11.043  1.00  0.00     0.154 C 
BRANCH   7   8
HETATM    8  C   UNL     1     -41.490 -48.513  10.732  1.00  0.00     0.292 C 
BRANCH   8   9
HETATM    9  N   UNL     1     -41.308 -47.252  11.476  1.00  0.00     0.095 N 
HETATM   10  C   UNL     1     -41.112 -46.084  10.595  1.00  0.00     0.303 C 
HETATM   11  C   UNL     1     -40.930 -44.779  11.398  1.00  0.00     0.146 C 
HETATM   12  C   UNL     1     -42.213 -44.336  12.102  1.00  0.00     0.041 C 
HETATM   13  O   UNL     1     -39.832 -44.890  12.318  1.00  0.00    -0.378 OA
HETATM   14  C   UNL     1     -39.958 -46.025  13.191  1.00  0.00     0.146 C 
HETATM   15  C   UNL     1     -40.146 -47.337  12.392  1.00  0.00     0.303 C 
HETATM   16  C   UNL     1     -38.697 -46.073  14.045  1.00  0.00     0.041 C 
ENDBRANCH   8   9
ENDBRANCH   7   8
ENDBRANCH   1   7
BRANCH   4  17
HETATM   17  C   UNL     1     -42.318 -53.411  13.393  1.00  0.00     0.080 A 
HETATM   18  C   UNL     1     -41.386 -54.292  13.964  1.00  0.00     0.035 A 
HETATM   19  C   UNL     1     -41.682 -54.949  15.142  1.00  0.00     0.019 A 
HETATM   20  C   UNL     1     -42.912 -54.713  15.707  1.00  0.00     0.090 A 
HETATM   21  N   UNL     1     -43.835 -53.880  15.175  1.00  0.00    -0.351 N 
HETATM   22  C   UNL     1     -43.576 -53.228  14.010  1.00  0.00     0.130 A 
ATOM     23  HN  UNL     1     -44.727 -53.740  15.649  1.00  0.00     0.166 HD
BRANCH  22  24
HETATM   24  N   UNL     1     -44.605 -52.447  13.515  1.00  0.00    -0.365 N 
HETATM   25  C   UNL     1     -45.561 -52.799  12.475  1.00  0.00     0.124 C 
HETATM   26  C   UNL     1     -46.703 -51.799  12.614  1.00  0.00     0.021 C 
HETATM   27  C   UNL     1     -46.630 -51.346  14.056  1.00  0.00     0.021 C 
HETATM   28  C   UNL     1     -45.139 -51.386  14.374  1.00  0.00     0.124 C 
ENDBRANCH  22  24
ENDBRANCH   4  17
TORSDOF 5
ENDMDL
MODEL 6
REMARK VINA RESULT:      -6.5      2.038      3.750
REMARK  5 active torsions:
REMARK  status: ('A' for Active; 'I' for Inactive)
REMARK    1  A    between atoms: N_4  and  C_5 
REMARK    2  A    between atoms: C_5  and  C_6 
REMARK    3  A    between atoms: C_6  and  N_7 
REMARK       I    between atoms: N_7  and  C_8 
REMARK       I    between atoms: C_8  and  N_10 
REMARK    4  A    between atoms: N_10  and  C_11 
REMARK    5  A    between atoms: C_17  and  N_18 
ROOT
HETATM    1  N   UNL     1     -41.694 -52.433  11.752  1.00  0.00    -0.341 N 
HETATM    2  C   UNL     1     -41.549 -51.096  12.060  1.00  0.00     0.320 C 
HETATM    3  O   UNL     1     -41.942 -50.600  13.104  1.00  0.00    -0.247 OA
HETATM    4  N   UNL     1     -40.954 -50.418  11.015  1.00  0.00    -0.306 N 
HETATM    5  H   UNL     1     -41.002 -52.806  11.118  1.00  0.00     0.164 HD
HETATM    6  H   UNL     1     -41.104 -50.821  10.108  1.00  0.00     0.171 HD
ENDROOT
BRANCH   1   7
HETATM    7  C   UNL     1     -42.257 -53.351  12.727  1.00  0.00     0.154 C 
BRANCH   7   8
HETATM    8  C   UNL     1     -43.794 -53.464  12.631  1.00  0.00     0.292 C 
BRANCH   8   9
HETATM    9  N   UNL     1     -44.497 -53.017  13.849  1.00  0.00     0.095 N 
HETATM   10  C   UNL     1     -45.075 -51.665  13.719  1.00  0.00     0.303 C 
HETATM   11  C   UNL     1     -45.808 -51.226  15.004  1.00  0.00     0.146 C 
HETATM   12  C   UNL     1     -47.095 -52.015  15.248  1.00  0.00     0.041 C 
HETATM   13  O   UNL     1     -44.931 -51.278  16.140  1.00  0.00    -0.378 OA
HETATM   14  C   UNL     1     -44.320 -52.568  16.306  1.00  0.00     0.146 C 
HETATM   15  C   UNL     1     -43.588 -53.018  15.019  1.00  0.00     0.303 C 
HETATM   16  C   UNL     1     -43.357 -52.459  17.482  1.00  0.00     0.041 C 
ENDBRANCH   8   9
ENDBRANCH   7   8
ENDBRANCH   1   7
BRANCH   4  17
HETATM   17  C   UNL     1     -40.755 -49.019  11.042  1.00  0.00     0.080 A 
HETATM   18  C   UNL     1     -41.729 -48.223  10.417  1.00  0.00     0.035 A 
HETATM   19  C   UNL     1     -41.676 -46.848  10.524  1.00  0.00     0.019 A 
HETATM   20  C   UNL     1     -40.638 -46.308  11.246  1.00  0.00     0.090 A 
HETATM   21  N   UNL     1     -39.680 -47.047  11.850  1.00  0.00    -0.351 N 
HETATM   22  C   UNL     1     -39.700 -48.403  11.752  1.00  0.00     0.130 A 
ATOM     23  HN  UNL     1     -38.941 -46.586  12.380  1.00  0.00     0.166 HD
BRANCH  22  24
HETATM   24  N   UNL     1     -38.644 -49.067  12.351  1.00  0.00    -0.365 N 
HETATM   25  C   UNL     1     -38.590 -49.608  13.701  1.00  0.00     0.124 C 
HETATM   26  C   UNL     1     -37.418 -50.583  13.705  1.00  0.00     0.021 C 
HETATM   27  C   UNL     1     -37.266 -50.990  12.255  1.00  0.00     0.021 C 
HETATM   28  C   UNL     1     -37.673 -49.741  11.482  1.00  0.00     0.124 C 
ENDBRANCH  22  24
ENDBRANCH   4  17
TORSDOF 5
ENDMDL
MODEL 7
REMARK VINA RESULT:      -6.4      2.203      8.370
REMARK  5 active torsions:
REMARK  status: ('A' for Active; 'I' for Inactive)
REMARK    1  A    between atoms: N_4  and  C_5 
REMARK    2  A    between atoms: C_5  and  C_6 
REMARK    3  A    between atoms: C_6  and  N_7 
REMARK       I    between atoms: N_7  and  C_8 
REMARK       I    between atoms: C_8  and  N_10 
REMARK    4  A    between atoms: N_10  and  C_11 
REMARK    5  A    between atoms: C_17  and  N_18 
ROOT
HETATM    1  N   UNL     1     -42.945 -48.961  11.879  1.00  0.00    -0.341 N 
HETATM    2  C   UNL     1     -42.687 -49.986  12.765  1.00  0.00     0.320 C 
HETATM    3  O   UNL     1     -42.400 -49.806  13.939  1.00  0.00    -0.247 OA
HETATM    4  N   UNL     1     -42.753 -51.208  12.126  1.00  0.00    -0.306 N 
HETATM    5  H   UNL     1     -43.557 -49.198  11.112  1.00  0.00     0.164 HD
HETATM    6  H   UNL     1     -42.545 -51.185  11.145  1.00  0.00     0.171 HD
ENDROOT
BRANCH   1   7
HETATM    7  C   UNL     1     -42.975 -47.584  12.344  1.00  0.00     0.154 C 
BRANCH   7   8
HETATM    8  C   UNL     1     -42.946 -46.558  11.191  1.00  0.00     0.292 C 
BRANCH   8   9
HETATM    9  N   UNL     1     -41.872 -45.554  11.321  1.00  0.00     0.095 N 
HETATM   10  C   UNL     1     -42.374 -44.166  11.314  1.00  0.00     0.303 C 
HETATM   11  C   UNL     1     -41.232 -43.139  11.456  1.00  0.00     0.146 C 
HETATM   12  C   UNL     1     -40.593 -43.156  12.845  1.00  0.00     0.041 C 
HETATM   13  O   UNL     1     -40.252 -43.312  10.420  1.00  0.00    -0.378 OA
HETATM   14  C   UNL     1     -39.741 -44.654  10.364  1.00  0.00     0.146 C 
HETATM   15  C   UNL     1     -40.881 -45.690  10.227  1.00  0.00     0.303 C 
HETATM   16  C   UNL     1     -38.788 -44.719   9.177  1.00  0.00     0.041 C 
ENDBRANCH   8   9
ENDBRANCH   7   8
ENDBRANCH   1   7
BRANCH   4  17
HETATM   17  C   UNL     1     -42.456 -52.421  12.790  1.00  0.00     0.080 A 
HETATM   18  C   UNL     1     -41.154 -52.926  12.647  1.00  0.00     0.035 A 
HETATM   19  C   UNL     1     -40.752 -54.027  13.376  1.00  0.00     0.019 A 
HETATM   20  C   UNL     1     -41.673 -54.599  14.221  1.00  0.00     0.090 A 
HETATM   21  N   UNL     1     -42.937 -54.142  14.371  1.00  0.00    -0.351 N 
HETATM   22  C   UNL     1     -43.365 -53.067  13.658  1.00  0.00     0.130 A 
ATOM     23  HN  UNL     1     -43.571 -54.606  15.022  1.00  0.00     0.166 HD
BRANCH  22  24
HETATM   24  N   UNL     1     -44.691 -52.714  13.834  1.00  0.00    -0.365 N 
HETATM   25  C   UNL     1     -45.237 -51.790  14.817  1.00  0.00     0.124 C 
HETATM   26  C   UNL     1     -46.634 -51.438  14.318  1.00  0.00     0.021 C 
HETATM   27  C   UNL     1     -46.568 -51.683  12.826  1.00  0.00     0.021 C 
HETATM   28  C   UNL     1     -45.599 -52.852  12.691  1.00  0.00     0.124 C 
ENDBRANCH  22  24
ENDBRANCH   4  17
TORSDOF 5
ENDMDL
MODEL 8
REMARK VINA RESULT:      -6.3      2.105      7.739
REMARK  5 active torsions:
REMARK  status: ('A' for Active; 'I' for Inactive)
REMARK    1  A    between atoms: N_4  and  C_5 
REMARK    2  A    between atoms: C_5  and  C_6 
REMARK    3  A    between atoms: C_6  and  N_7 
REMARK       I    between atoms: N_7  and  C_8 
REMARK       I    between atoms: C_8  and  N_10 
REMARK    4  A    between atoms: N_10  and  C_11 
REMARK    5  A    between atoms: C_17  and  N_18 
ROOT
HETATM    1  N   UNL     1     -40.957 -50.820  11.125  1.00  0.00    -0.341 N 
HETATM    2  C   UNL     1     -41.806 -51.254  12.123  1.00  0.00     0.320 C 
HETATM    3  O   UNL     1     -42.066 -50.598  13.119  1.00  0.00    -0.247 OA
HETATM    4  N   UNL     1     -42.263 -52.529  11.851  1.00  0.00    -0.306 N 
HETATM    5  H   UNL     1     -41.137 -51.205  10.209  1.00  0.00     0.164 HD
HETATM    6  H   UNL     1     -41.648 -53.088  11.288  1.00  0.00     0.171 HD
ENDROOT
BRANCH   1   7
HETATM    7  C   UNL     1     -40.391 -49.483  11.179  1.00  0.00     0.154 C 
BRANCH   7   8
HETATM    8  C   UNL     1     -41.365 -48.396  10.679  1.00  0.00     0.292 C 
BRANCH   8   9
HETATM    9  N   UNL     1     -41.260 -47.123  11.419  1.00  0.00     0.095 N 
HETATM   10  C   UNL     1     -41.124 -45.950  10.534  1.00  0.00     0.303 C 
HETATM   11  C   UNL     1     -41.022 -44.633  11.333  1.00  0.00     0.146 C 
HETATM   12  C   UNL     1     -42.334 -44.261  12.025  1.00  0.00     0.041 C 
HETATM   13  O   UNL     1     -39.927 -44.678  12.262  1.00  0.00    -0.378 OA
HETATM   14  C   UNL     1     -39.995 -45.815  13.139  1.00  0.00     0.146 C 
HETATM   15  C   UNL     1     -40.103 -47.139  12.344  1.00  0.00     0.303 C 
HETATM   16  C   UNL     1     -38.740 -45.788  14.002  1.00  0.00     0.041 C 
ENDBRANCH   8   9
ENDBRANCH   7   8
ENDBRANCH   1   7
BRANCH   4  17
HETATM   17  C   UNL     1     -43.091 -53.239  12.750  1.00  0.00     0.080 A 
HETATM   18  C   UNL     1     -44.465 -53.272  12.463  1.00  0.00     0.035 A 
HETATM   19  C   UNL     1     -45.313 -54.059  13.215  1.00  0.00     0.019 A 
HETATM   20  C   UNL     1     -44.760 -54.784  14.244  1.00  0.00     0.090 A 
HETATM   21  N   UNL     1     -43.443 -54.764  14.552  1.00  0.00    -0.351 N 
HETATM   22  C   UNL     1     -42.585 -53.988  13.836  1.00  0.00     0.130 A 
ATOM     23  HN  UNL     1     -43.092 -55.331  15.323  1.00  0.00     0.166 HD
BRANCH  22  24
HETATM   24  N   UNL     1     -41.271 -53.987  14.266  1.00  0.00    -0.365 N 
HETATM   25  C   UNL     1     -40.091 -54.375  13.506  1.00  0.00     0.124 C 
HETATM   26  C   UNL     1     -38.905 -53.793  14.266  1.00  0.00     0.021 C 
HETATM   27  C   UNL     1     -39.491 -52.631  15.039  1.00  0.00     0.021 C 
HETATM   28  C   UNL     1     -40.907 -53.090  15.368  1.00  0.00     0.124 C 
ENDBRANCH  22  24
ENDBRANCH   4  17
TORSDOF 5
ENDMDL
MODEL 9
REMARK VINA RESULT:      -6.3      2.107      7.822
REMARK  5 active torsions:
REMARK  status: ('A' for Active; 'I' for Inactive)
REMARK    1  A    between atoms: N_4  and  C_5 
REMARK    2  A    between atoms: C_5  and  C_6 
REMARK    3  A    between atoms: C_6  and  N_7 
REMARK       I    between atoms: N_7  and  C_8 
REMARK       I    between atoms: C_8  and  N_10 
REMARK    4  A    between atoms: N_10  and  C_11 
REMARK    5  A    between atoms: C_17  and  N_18 
ROOT
HETATM    1  N   UNL     1     -41.236 -49.602  10.911  1.00  0.00    -0.341 N 
HETATM    2  C   UNL     1     -41.376 -50.383  12.039  1.00  0.00     0.320 C 
HETATM    3  O   UNL     1     -41.139 -49.984  13.168  1.00  0.00    -0.247 OA
HETATM    4  N   UNL     1     -41.767 -51.662  11.698  1.00  0.00    -0.306 N 
HETATM    5  H   UNL     1     -41.831 -49.856  10.135  1.00  0.00     0.164 HD
HETATM    6  H   UNL     1     -41.487 -51.961  10.782  1.00  0.00     0.171 HD
ENDROOT
BRANCH   1   7
HETATM    7  C   UNL     1     -40.876 -48.199  11.033  1.00  0.00     0.154 C 
BRANCH   7   8
HETATM    8  C   UNL     1     -42.086 -47.252  10.899  1.00  0.00     0.292 C 
BRANCH   8   9
HETATM    9  N   UNL     1     -42.018 -46.076  11.788  1.00  0.00     0.095 N 
HETATM   10  C   UNL     1     -42.798 -46.245  13.030  1.00  0.00     0.303 C 
HETATM   11  C   UNL     1     -42.704 -45.004  13.943  1.00  0.00     0.146 C 
HETATM   12  C   UNL     1     -41.314 -44.824  14.553  1.00  0.00     0.041 C 
HETATM   13  O   UNL     1     -43.135 -43.822  13.249  1.00  0.00    -0.378 OA
HETATM   14  C   UNL     1     -42.424 -43.616  12.017  1.00  0.00     0.146 C 
HETATM   15  C   UNL     1     -42.508 -44.859  11.099  1.00  0.00     0.303 C 
HETATM   16  C   UNL     1     -43.035 -42.391  11.348  1.00  0.00     0.041 C 
ENDBRANCH   8   9
ENDBRANCH   7   8
ENDBRANCH   1   7
BRANCH   4  17
HETATM   17  C   UNL     1     -41.912 -52.686  12.662  1.00  0.00     0.080 A 
HETATM   18  C   UNL     1     -40.778 -53.467  12.941  1.00  0.00     0.035 A 
HETATM   19  C   UNL     1     -40.805 -54.390  13.967  1.00  0.00     0.019 A 
HETATM   20  C   UNL     1     -41.975 -54.513  14.679  1.00  0.00     0.090 A 
HETATM   21  N   UNL     1     -43.085 -53.784  14.427  1.00  0.00    -0.351 N 
HETATM   22  C   UNL     1     -43.093 -52.876  13.415  1.00  0.00     0.130 A 
ATOM     23  HN  UNL     1     -43.920 -53.916  14.998  1.00  0.00     0.166 HD
BRANCH  22  24
HETATM   24  N   UNL     1     -44.294 -52.225  13.196  1.00  0.00    -0.365 N 
HETATM   25  C   UNL     1     -45.451 -52.725  12.468  1.00  0.00     0.124 C 
HETATM   26  C   UNL     1     -46.614 -51.831  12.884  1.00  0.00     0.021 C 
HETATM   27  C   UNL     1     -46.204 -51.293  14.237  1.00  0.00     0.021 C 
HETATM   28  C   UNL     1     -44.688 -51.173  14.138  1.00  0.00     0.124 C 
ENDBRANCH  22  24
ENDBRANCH   4  17
TORSDOF 5
ENDMDL
