MODEL 1
REMARK VINA RESULT:      -5.4      0.000      0.000
REMARK  5 active torsions:
REMARK  status: ('A' for Active; 'I' for Inactive)
REMARK    1  A    between atoms: C_2  and  N_3 
REMARK    2  A    between atoms: C_2  and  C_11 
REMARK    3  A    between atoms: N_3  and  C_4 
REMARK    4  A    between atoms: C_4  and  C_5 
REMARK       I    between atoms: C_5  and  N_7 
REMARK    5  A    between atoms: C_11  and  N_13 
ROOT
HETATM    1  C   UNL     1     -39.797 -48.193  11.862  1.00  0.00     0.045 C 
HETATM    2  C   UNL     1     -40.887 -48.831  10.993  1.00  0.00     0.241 C 
ENDROOT
BRANCH   2   3
HETATM    3  N   UNL     1     -40.707 -50.293  10.953  1.00  0.00     0.098 N 
HETATM    4  H   UNL     1     -39.714 -50.538  10.930  1.00  0.00     0.317 HD
BRANCH   3   5
HETATM    5  C   UNL     1     -41.335 -51.040  12.055  1.00  0.00     0.372 C 
BRANCH   5   6
HETATM    6  C   UNL     1     -40.285 -51.991  12.636  1.00  0.00     0.247 C 
HETATM    7  O   UNL     1     -39.084 -51.707  12.597  1.00  0.00    -0.271 OA
HETATM    8  N   UNL     1     -40.746 -53.177  13.122  1.00  0.00    -0.351 N 
HETATM    9  C   UNL     1     -40.012 -54.280  13.715  1.00  0.00     0.127 C 
HETATM   10  C   UNL     1     -42.027 -53.576  13.668  1.00  0.00     0.127 C 
HETATM   11  C   UNL     1     -41.225 -54.461  14.632  1.00  0.00     0.040 C 
ENDBRANCH   5   6
ENDBRANCH   3   5
ENDBRANCH   2   3
BRANCH   2  12
HETATM   12  C   UNL     1     -42.327 -48.362  11.376  1.00  0.00     0.136 C 
HETATM   13  C   UNL     1     -42.338 -47.258  12.439  1.00  0.00     0.036 C 
BRANCH  12  14
HETATM   14  N   UNL     1     -43.099 -47.927  10.207  1.00  0.00    -0.297 N 
HETATM   15  C   UNL     1     -44.398 -47.489  10.182  1.00  0.00     0.112 A 
HETATM   16  C   UNL     1     -44.680 -47.201   8.869  1.00  0.00     0.037 A 
HETATM   17  C   UNL     1     -43.502 -47.520   8.173  1.00  0.00     0.108 A 
HETATM   18  N   UNL     1     -42.546 -47.996   8.975  1.00  0.00    -0.310 N 
ATOM     19  HN  UNL     1     -41.617 -48.332   8.719  1.00  0.00     0.186 HD
ENDBRANCH  12  14
ENDBRANCH   2  12
TORSDOF 5
ENDMDL
MODEL 2
REMARK VINA RESULT:      -5.3      3.480      5.178
REMARK  5 active torsions:
REMARK  status: ('A' for Active; 'I' for Inactive)
REMARK    1  A    between atoms: C_2  and  N_3 
REMARK    2  A    between atoms: C_2  and  C_11 
REMARK    3  A    between atoms: N_3  and  C_4 
REMARK    4  A    between atoms: C_4  and  C_5 
REMARK       I    between atoms: C_5  and  N_7 
REMARK    5  A    between atoms: C_11  and  N_13 
ROOT
HETATM    1  C   UNL     1     -40.357 -52.801  12.939  1.00  0.00     0.045 C 
HETATM    2  C   UNL     1     -41.143 -52.097  11.826  1.00  0.00     0.241 C 
ENDROOT
BRANCH   2   3
HETATM    3  N   UNL     1     -42.535 -52.579  11.811  1.00  0.00     0.098 N 
HETATM    4  H   UNL     1     -42.700 -53.193  11.009  1.00  0.00     0.317 HD
BRANCH   3   5
HETATM    5  C   UNL     1     -42.975 -53.286  13.025  1.00  0.00     0.372 C 
BRANCH   5   6
HETATM    6  C   UNL     1     -44.492 -53.476  12.933  1.00  0.00     0.247 C 
HETATM    7  O   UNL     1     -44.974 -54.536  12.524  1.00  0.00    -0.271 OA
HETATM    8  N   UNL     1     -45.257 -52.396  13.258  1.00  0.00    -0.351 N 
HETATM    9  C   UNL     1     -46.701 -52.253  13.258  1.00  0.00     0.127 C 
HETATM   10  C   UNL     1     -45.022 -51.260  14.126  1.00  0.00     0.127 C 
HETATM   11  C   UNL     1     -46.511 -51.359  14.486  1.00  0.00     0.040 C 
ENDBRANCH   5   6
ENDBRANCH   3   5
ENDBRANCH   2   3
BRANCH   2  12
HETATM   12  C   UNL     1     -40.991 -50.542  11.861  1.00  0.00     0.136 C 
HETATM   13  C   UNL     1     -41.837 -49.879  12.954  1.00  0.00     0.036 C 
BRANCH  12  14
HETATM   14  N   UNL     1     -39.593 -50.124  11.998  1.00  0.00    -0.297 N 
HETATM   15  C   UNL     1     -38.999 -49.548  13.092  1.00  0.00     0.112 A 
HETATM   16  C   UNL     1     -37.687 -49.333  12.747  1.00  0.00     0.037 A 
HETATM   17  C   UNL     1     -37.589 -49.785  11.420  1.00  0.00     0.108 A 
HETATM   18  N   UNL     1     -38.753 -50.236  10.945  1.00  0.00    -0.310 N 
ATOM     19  HN  UNL     1     -38.959 -50.584  10.008  1.00  0.00     0.186 HD
ENDBRANCH  12  14
ENDBRANCH   2  12
TORSDOF 5
ENDMDL
MODEL 3
REMARK VINA RESULT:      -5.2      3.247      5.535
REMARK  5 active torsions:
REMARK  status: ('A' for Active; 'I' for Inactive)
REMARK    1  A    between atoms: C_2  and  N_3 
REMARK    2  A    between atoms: C_2  and  C_11 
REMARK    3  A    between atoms: N_3  and  C_4 
REMARK    4  A    between atoms: C_4  and  C_5 
REMARK       I    between atoms: C_5  and  N_7 
REMARK    5  A    between atoms: C_11  and  N_13 
ROOT
HETATM    1  C   UNL     1     -41.599 -54.125  13.580  1.00  0.00     0.045 C 
HETATM    2  C   UNL     1     -42.703 -53.186  13.080  1.00  0.00     0.241 C 
ENDROOT
BRANCH   2   3
HETATM    3  N   UNL     1     -42.311 -52.588  11.793  1.00  0.00     0.098 N 
HETATM    4  H   UNL     1     -42.895 -51.777  11.573  1.00  0.00     0.317 HD
BRANCH   3   5
HETATM    5  C   UNL     1     -40.901 -52.176  11.688  1.00  0.00     0.372 C 
BRANCH   5   6
HETATM    6  C   UNL     1     -40.847 -50.652  11.823  1.00  0.00     0.247 C 
HETATM    7  O   UNL     1     -41.883 -49.984  11.871  1.00  0.00    -0.271 OA
HETATM    8  N   UNL     1     -39.606 -50.088  11.814  1.00  0.00    -0.351 N 
HETATM    9  C   UNL     1     -39.227 -48.691  11.909  1.00  0.00     0.127 C 
HETATM   10  C   UNL     1     -38.302 -50.594  12.191  1.00  0.00     0.127 C 
HETATM   11  C   UNL     1     -38.016 -49.178  12.710  1.00  0.00     0.040 C 
ENDBRANCH   5   6
ENDBRANCH   3   5
ENDBRANCH   2   3
BRANCH   2  12
HETATM   12  C   UNL     1     -44.119 -53.848  13.088  1.00  0.00     0.136 C 
HETATM   13  C   UNL     1     -44.286 -54.899  14.191  1.00  0.00     0.036 C 
BRANCH  12  14
HETATM   14  N   UNL     1     -45.195 -52.857  13.185  1.00  0.00    -0.297 N 
HETATM   15  C   UNL     1     -45.740 -52.328  14.327  1.00  0.00     0.112 A 
HETATM   16  C   UNL     1     -46.712 -51.450  13.916  1.00  0.00     0.037 A 
HETATM   17  C   UNL     1     -46.700 -51.536  12.514  1.00  0.00     0.108 A 
HETATM   18  N   UNL     1     -45.803 -52.415  12.062  1.00  0.00    -0.310 N 
ATOM     19  HN  UNL     1     -45.619 -52.689  11.096  1.00  0.00     0.186 HD
ENDBRANCH  12  14
ENDBRANCH   2  12
TORSDOF 5
ENDMDL
MODEL 4
REMARK VINA RESULT:      -5.2      2.480      6.366
REMARK  5 active torsions:
REMARK  status: ('A' for Active; 'I' for Inactive)
REMARK    1  A    between atoms: C_2  and  N_3 
REMARK    2  A    between atoms: C_2  and  C_11 
REMARK    3  A    between atoms: N_3  and  C_4 
REMARK    4  A    between atoms: C_4  and  C_5 
REMARK       I    between atoms: C_5  and  N_7 
REMARK    5  A    between atoms: C_11  and  N_13 
ROOT
HETATM    1  C   UNL     1     -38.711 -47.955  13.284  1.00  0.00     0.045 C 
HETATM    2  C   UNL     1     -39.645 -48.533  12.213  1.00  0.00     0.241 C 
ENDROOT
BRANCH   2   3
HETATM    3  N   UNL     1     -39.975 -47.495  11.221  1.00  0.00     0.098 N 
HETATM    4  H   UNL     1     -40.326 -47.915  10.356  1.00  0.00     0.317 HD
BRANCH   3   5
HETATM    5  C   UNL     1     -40.946 -46.480  11.663  1.00  0.00     0.372 C 
BRANCH   5   6
HETATM    6  C   UNL     1     -41.583 -45.865  10.413  1.00  0.00     0.247 C 
HETATM    7  O   UNL     1     -41.014 -44.964   9.792  1.00  0.00    -0.271 OA
HETATM    8  N   UNL     1     -42.825 -46.318  10.083  1.00  0.00    -0.351 N 
HETATM    9  C   UNL     1     -43.687 -45.929   8.982  1.00  0.00     0.127 C 
HETATM   10  C   UNL     1     -43.504 -47.574  10.331  1.00  0.00     0.127 C 
HETATM   11  C   UNL     1     -44.122 -47.397   8.937  1.00  0.00     0.040 C 
ENDBRANCH   5   6
ENDBRANCH   3   5
ENDBRANCH   2   3
BRANCH   2  12
HETATM   12  C   UNL     1     -39.122 -49.874  11.605  1.00  0.00     0.136 C 
HETATM   13  C   UNL     1     -37.636 -50.122  11.882  1.00  0.00     0.036 C 
BRANCH  12  14
HETATM   14  N   UNL     1     -39.906 -51.029  12.054  1.00  0.00    -0.297 N 
HETATM   15  C   UNL     1     -39.668 -51.824  13.146  1.00  0.00     0.112 A 
HETATM   16  C   UNL     1     -40.661 -52.772  13.154  1.00  0.00     0.037 A 
HETATM   17  C   UNL     1     -41.434 -52.487  12.017  1.00  0.00     0.108 A 
HETATM   18  N   UNL     1     -40.962 -51.449  11.322  1.00  0.00    -0.310 N 
ATOM     19  HN  UNL     1     -41.315 -51.063  10.446  1.00  0.00     0.186 HD
ENDBRANCH  12  14
ENDBRANCH   2  12
TORSDOF 5
ENDMDL
MODEL 5
REMARK VINA RESULT:      -5.1      3.445      6.198
REMARK  5 active torsions:
REMARK  status: ('A' for Active; 'I' for Inactive)
REMARK    1  A    between atoms: C_2  and  N_3 
REMARK    2  A    between atoms: C_2  and  C_11 
REMARK    3  A    between atoms: N_3  and  C_4 
REMARK    4  A    between atoms: C_4  and  C_5 
REMARK       I    between atoms: C_5  and  N_7 
REMARK    5  A    between atoms: C_11  and  N_13 
ROOT
HETATM    1  C   UNL     1     -43.769 -51.434  13.369  1.00  0.00     0.045 C 
HETATM    2  C   UNL     1     -43.474 -52.658  12.493  1.00  0.00     0.241 C 
ENDROOT
BRANCH   2   3
HETATM    3  N   UNL     1     -42.204 -52.465  11.771  1.00  0.00     0.098 N 
HETATM    4  H   UNL     1     -42.358 -52.449  10.759  1.00  0.00     0.317 HD
BRANCH   3   5
HETATM    5  C   UNL     1     -41.445 -51.257  12.134  1.00  0.00     0.372 C 
BRANCH   5   6
HETATM    6  C   UNL     1     -40.006 -51.682  12.439  1.00  0.00     0.247 C 
HETATM    7  O   UNL     1     -39.750 -52.831  12.809  1.00  0.00    -0.271 OA
HETATM    8  N   UNL     1     -39.056 -50.709  12.347  1.00  0.00    -0.351 N 
HETATM    9  C   UNL     1     -37.627 -50.789  12.583  1.00  0.00     0.127 C 
HETATM   10  C   UNL     1     -38.983 -49.487  11.571  1.00  0.00     0.127 C 
HETATM   11  C   UNL     1     -37.483 -49.784  11.436  1.00  0.00     0.040 C 
ENDBRANCH   5   6
ENDBRANCH   3   5
ENDBRANCH   2   3
BRANCH   2  12
HETATM   12  C   UNL     1     -43.582 -54.008  13.272  1.00  0.00     0.136 C 
HETATM   13  C   UNL     1     -42.305 -54.365  14.039  1.00  0.00     0.036 C 
BRANCH  12  14
HETATM   14  N   UNL     1     -44.728 -54.031  14.186  1.00  0.00    -0.297 N 
HETATM   15  C   UNL     1     -44.702 -54.007  15.557  1.00  0.00     0.112 A 
HETATM   16  C   UNL     1     -46.011 -54.048  15.967  1.00  0.00     0.037 A 
HETATM   17  C   UNL     1     -46.755 -54.122  14.777  1.00  0.00     0.108 A 
HETATM   18  N   UNL     1     -45.980 -54.147  13.689  1.00  0.00    -0.310 N 
ATOM     19  HN  UNL     1     -46.266 -54.233  12.713  1.00  0.00     0.186 HD
ENDBRANCH  12  14
ENDBRANCH   2  12
TORSDOF 5
ENDMDL
MODEL 6
REMARK VINA RESULT:      -5.0      3.099      4.503
REMARK  5 active torsions:
REMARK  status: ('A' for Active; 'I' for Inactive)
REMARK    1  A    between atoms: C_2  and  N_3 
REMARK    2  A    between atoms: C_2  and  C_11 
REMARK    3  A    between atoms: N_3  and  C_4 
REMARK    4  A    between atoms: C_4  and  C_5 
REMARK       I    between atoms: C_5  and  N_7 
REMARK    5  A    between atoms: C_11  and  N_13 
ROOT
HETATM    1  C   UNL     1     -41.079 -53.806  12.920  1.00  0.00     0.045 C 
HETATM    2  C   UNL     1     -41.510 -52.544  12.162  1.00  0.00     0.241 C 
ENDROOT
BRANCH   2   3
HETATM    3  N   UNL     1     -42.907 -52.679  11.715  1.00  0.00     0.098 N 
HETATM    4  H   UNL     1     -42.951 -53.012  10.748  1.00  0.00     0.317 HD
BRANCH   3   5
HETATM    5  C   UNL     1     -43.755 -53.558  12.538  1.00  0.00     0.372 C 
BRANCH   5   6
HETATM    6  C   UNL     1     -45.083 -52.835  12.780  1.00  0.00     0.247 C 
HETATM    7  O   UNL     1     -46.003 -52.911  11.961  1.00  0.00    -0.271 OA
HETATM    8  N   UNL     1     -45.155 -52.062  13.900  1.00  0.00    -0.351 N 
HETATM    9  C   UNL     1     -46.254 -51.253  14.393  1.00  0.00     0.127 C 
HETATM   10  C   UNL     1     -44.467 -52.122  15.173  1.00  0.00     0.127 C 
HETATM   11  C   UNL     1     -45.792 -51.662  15.795  1.00  0.00     0.040 C 
ENDBRANCH   5   6
ENDBRANCH   3   5
ENDBRANCH   2   3
BRANCH   2  12
HETATM   12  C   UNL     1     -41.198 -51.226  12.941  1.00  0.00     0.136 C 
HETATM   13  C   UNL     1     -39.699 -51.001  13.167  1.00  0.00     0.036 C 
BRANCH  12  14
HETATM   14  N   UNL     1     -41.781 -50.047  12.293  1.00  0.00    -0.297 N 
HETATM   15  C   UNL     1     -42.891 -49.343  12.685  1.00  0.00     0.112 A 
HETATM   16  C   UNL     1     -43.047 -48.332  11.770  1.00  0.00     0.037 A 
HETATM   17  C   UNL     1     -42.003 -48.520  10.849  1.00  0.00     0.108 A 
HETATM   18  N   UNL     1     -41.248 -49.583  11.141  1.00  0.00    -0.310 N 
ATOM     19  HN  UNL     1     -40.455 -49.956  10.617  1.00  0.00     0.186 HD
ENDBRANCH  12  14
ENDBRANCH   2  12
TORSDOF 5
ENDMDL
MODEL 7
REMARK VINA RESULT:      -4.9      2.804      3.928
REMARK  5 active torsions:
REMARK  status: ('A' for Active; 'I' for Inactive)
REMARK    1  A    between atoms: C_2  and  N_3 
REMARK    2  A    between atoms: C_2  and  C_11 
REMARK    3  A    between atoms: N_3  and  C_4 
REMARK    4  A    between atoms: C_4  and  C_5 
REMARK       I    between atoms: C_5  and  N_7 
REMARK    5  A    between atoms: C_11  and  N_13 
ROOT
HETATM    1  C   UNL     1     -41.387 -49.817  12.647  1.00  0.00     0.045 C 
HETATM    2  C   UNL     1     -40.529 -48.975  11.694  1.00  0.00     0.241 C 
ENDROOT
BRANCH   2   3
HETATM    3  N   UNL     1     -39.542 -49.833  11.017  1.00  0.00     0.098 N 
HETATM    4  H   UNL     1     -39.676 -49.813  10.002  1.00  0.00     0.317 HD
BRANCH   3   5
HETATM    5  C   UNL     1     -38.130 -49.519  11.296  1.00  0.00     0.372 C 
BRANCH   5   6
HETATM    6  C   UNL     1     -37.689 -50.368  12.492  1.00  0.00     0.247 C 
HETATM    7  O   UNL     1     -37.349 -51.544  12.342  1.00  0.00    -0.271 OA
HETATM    8  N   UNL     1     -37.765 -49.773  13.716  1.00  0.00    -0.351 N 
HETATM    9  C   UNL     1     -37.439 -50.309  15.024  1.00  0.00     0.127 C 
HETATM   10  C   UNL     1     -37.703 -48.387  14.133  1.00  0.00     0.127 C 
HETATM   11  C   UNL     1     -36.948 -48.899  15.367  1.00  0.00     0.040 C 
ENDBRANCH   5   6
ENDBRANCH   3   5
ENDBRANCH   2   3
BRANCH   2  12
HETATM   12  C   UNL     1     -41.378 -48.076  10.739  1.00  0.00     0.136 C 
HETATM   13  C   UNL     1     -42.885 -48.180  10.996  1.00  0.00     0.036 C 
BRANCH  12  14
HETATM   14  N   UNL     1     -40.966 -46.670  10.788  1.00  0.00    -0.297 N 
HETATM   15  C   UNL     1     -41.709 -45.598  11.212  1.00  0.00     0.112 A 
HETATM   16  C   UNL     1     -40.905 -44.495  11.069  1.00  0.00     0.037 A 
HETATM   17  C   UNL     1     -39.708 -44.992  10.528  1.00  0.00     0.108 A 
HETATM   18  N   UNL     1     -39.749 -46.311  10.322  1.00  0.00    -0.310 N 
ATOM     19  HN  UNL     1     -39.031 -46.908   9.909  1.00  0.00     0.186 HD
ENDBRANCH  12  14
ENDBRANCH   2  12
TORSDOF 5
ENDMDL
MODEL 8
REMARK VINA RESULT:      -4.9      1.840      2.366
REMARK  5 active torsions:
REMARK  status: ('A' for Active; 'I' for Inactive)
REMARK    1  A    between atoms: C_2  and  N_3 
REMARK    2  A    between atoms: C_2  and  C_11 
REMARK    3  A    between atoms: N_3  and  C_4 
REMARK    4  A    between atoms: C_4  and  C_5 
REMARK       I    between atoms: C_5  and  N_7 
REMARK    5  A    between atoms: C_11  and  N_13 
ROOT
HETATM    1  C   UNL     1     -41.307 -48.725  12.953  1.00  0.00     0.045 C 
HETATM    2  C   UNL     1     -40.795 -48.801  11.510  1.00  0.00     0.241 C 
ENDROOT
BRANCH   2   3
HETATM    3  N   UNL     1     -40.752 -50.205  11.065  1.00  0.00     0.098 N 
HETATM    4  H   UNL     1     -39.788 -50.509  10.907  1.00  0.00     0.317 HD
BRANCH   3   5
HETATM    5  C   UNL     1     -41.394 -51.176  11.967  1.00  0.00     0.372 C 
BRANCH   5   6
HETATM    6  C   UNL     1     -40.293 -52.044  12.582  1.00  0.00     0.247 C 
HETATM    7  O   UNL     1     -39.109 -51.702  12.519  1.00  0.00    -0.271 OA
HETATM    8  N   UNL     1     -40.690 -53.228  13.128  1.00  0.00    -0.351 N 
HETATM    9  C   UNL     1     -39.898 -54.262  13.765  1.00  0.00     0.127 C 
HETATM   10  C   UNL     1     -41.946 -53.664  13.705  1.00  0.00     0.127 C 
HETATM   11  C   UNL     1     -41.094 -54.460  14.702  1.00  0.00     0.040 C 
ENDBRANCH   5   6
ENDBRANCH   3   5
ENDBRANCH   2   3
BRANCH   2  12
HETATM   12  C   UNL     1     -41.547 -47.833  10.542  1.00  0.00     0.136 C 
HETATM   13  C   UNL     1     -43.069 -47.868  10.719  1.00  0.00     0.036 C 
BRANCH  12  14
HETATM   14  N   UNL     1     -41.070 -46.451  10.657  1.00  0.00    -0.297 N 
HETATM   15  C   UNL     1     -41.783 -45.354  11.068  1.00  0.00     0.112 A 
HETATM   16  C   UNL     1     -40.918 -44.290  11.007  1.00  0.00     0.037 A 
HETATM   17  C   UNL     1     -39.717 -44.834  10.524  1.00  0.00     0.108 A 
HETATM   18  N   UNL     1     -39.810 -46.143  10.276  1.00  0.00    -0.310 N 
ATOM     19  HN  UNL     1     -39.099 -46.764   9.890  1.00  0.00     0.186 HD
ENDBRANCH  12  14
ENDBRANCH   2  12
TORSDOF 5
ENDMDL
MODEL 9
REMARK VINA RESULT:      -4.8      2.550      4.059
REMARK  5 active torsions:
REMARK  status: ('A' for Active; 'I' for Inactive)
REMARK    1  A    between atoms: C_2  and  N_3 
REMARK    2  A    between atoms: C_2  and  C_11 
REMARK    3  A    between atoms: N_3  and  C_4 
REMARK    4  A    between atoms: C_4  and  C_5 
REMARK       I    between atoms: C_5  and  N_7 
REMARK    5  A    between atoms: C_11  and  N_13 
ROOT
HETATM    1  C   UNL     1     -43.010 -48.754  12.765  1.00  0.00     0.045 C 
HETATM    2  C   UNL     1     -41.975 -49.822  12.390  1.00  0.00     0.241 C 
ENDROOT
BRANCH   2   3
HETATM    3  N   UNL     1     -42.652 -51.095  12.089  1.00  0.00     0.098 N 
HETATM    4  H   UNL     1     -43.138 -51.047  11.190  1.00  0.00     0.317 HD
BRANCH   3   5
HETATM    5  C   UNL     1     -41.787 -52.286  12.076  1.00  0.00     0.372 C 
BRANCH   5   6
HETATM    6  C   UNL     1     -41.932 -52.986  13.430  1.00  0.00     0.247 C 
HETATM    7  O   UNL     1     -41.161 -52.732  14.359  1.00  0.00    -0.271 OA
HETATM    8  N   UNL     1     -42.900 -53.941  13.517  1.00  0.00    -0.351 N 
HETATM    9  C   UNL     1     -43.272 -54.780  14.640  1.00  0.00     0.127 C 
HETATM   10  C   UNL     1     -44.148 -54.132  12.804  1.00  0.00     0.127 C 
HETATM   11  C   UNL     1     -44.712 -54.642  14.137  1.00  0.00     0.040 C 
ENDBRANCH   5   6
ENDBRANCH   3   5
ENDBRANCH   2   3
BRANCH   2  12
HETATM   12  C   UNL     1     -40.971 -49.342  11.293  1.00  0.00     0.136 C 
HETATM   13  C   UNL     1     -41.191 -47.885  10.871  1.00  0.00     0.036 C 
BRANCH  12  14
HETATM   14  N   UNL     1     -39.574 -49.531  11.698  1.00  0.00    -0.297 N 
HETATM   15  C   UNL     1     -39.025 -49.295  12.931  1.00  0.00     0.112 A 
HETATM   16  C   UNL     1     -37.694 -49.613  12.825  1.00  0.00     0.037 A 
HETATM   17  C   UNL     1     -37.526 -50.005  11.487  1.00  0.00     0.108 A 
HETATM   18  N   UNL     1     -38.659 -49.926  10.784  1.00  0.00    -0.310 N 
ATOM     19  HN  UNL     1     -38.801 -50.117   9.792  1.00  0.00     0.186 HD
ENDBRANCH  12  14
ENDBRANCH   2  12
TORSDOF 5
ENDMDL
