MODEL 1
REMARK VINA RESULT:      -5.6      0.000      0.000
REMARK  5 active torsions:
REMARK  status: ('A' for Active; 'I' for Inactive)
REMARK    1  A    between atoms: C_2  and  C_3 
REMARK    2  A    between atoms: C_2  and  N_16 
REMARK    3  A    between atoms: C_3  and  N_4 
REMARK       I    between atoms: N_4  and  C_5 
REMARK    4  A    between atoms: C_5  and  C_7 
REMARK    5  A    between atoms: C_7  and  N_9 
ROOT
HETATM    1  N   UNL     1     -43.288 -49.359  12.299  1.00  0.00    -0.357 N 
HETATM    2  C   UNL     1     -42.433 -48.646  11.481  1.00  0.00     0.242 C 
HETATM    3  O   UNL     1     -41.310 -49.052  11.189  1.00  0.00    -0.271 OA
HETATM    4  H   UNL     1     -44.213 -49.005  12.509  1.00  0.00     0.162 HD
ENDROOT
BRANCH   1   5
HETATM    5  C   UNL     1     -42.868 -50.607  12.927  1.00  0.00     0.158 C 
BRANCH   5   6
HETATM    6  C   UNL     1     -43.878 -51.174  13.979  1.00  0.00     0.236 C 
HETATM    7  C   UNL     1     -43.900 -50.182  15.162  1.00  0.00     0.044 C 
BRANCH   6   8
HETATM    8  N   UNL     1     -43.501 -52.545  14.432  1.00  0.00     0.098 N 
HETATM    9  C   UNL     1     -43.078 -53.441  13.321  1.00  0.00     0.299 C 
HETATM   10  C   UNL     1     -44.234 -53.903  12.419  1.00  0.00     0.198 C 
HETATM   11  O   UNL     1     -45.215 -54.614  13.183  1.00  0.00    -0.388 OA
HETATM   12  C   UNL     1     -45.716 -53.800  14.249  1.00  0.00     0.198 C 
HETATM   13  C   UNL     1     -44.580 -53.276  15.150  1.00  0.00     0.299 C 
ENDBRANCH   6   8
ENDBRANCH   5   6
ENDBRANCH   1   5
BRANCH   2  14
HETATM   14  C   UNL     1     -43.000 -47.343  10.932  1.00  0.00     0.196 C 
HETATM   15  C   UNL     1     -41.944 -46.240  10.923  1.00  0.00     0.044 C 
BRANCH  14  16
HETATM   16  N   UNL     1     -43.530 -47.580   9.602  1.00  0.00    -0.273 N 
HETATM   17  C   UNL     1     -44.825 -47.515   9.186  1.00  0.00     0.202 A 
HETATM   18  N   UNL     1     -44.889 -47.810   7.909  1.00  0.00    -0.346 N 
HETATM   19  C   UNL     1     -43.586 -48.050   7.581  1.00  0.00     0.198 A 
ATOM     20  HN  UNL     1     -45.712 -47.850   7.307  1.00  0.00     0.167 HD
HETATM   21  N   UNL     1     -42.713 -47.913   8.584  1.00  0.00    -0.292 N 
ATOM     22  HN  UNL     1     -41.700 -48.030   8.579  1.00  0.00     0.188 HD
ENDBRANCH  14  16
ENDBRANCH   2  14
TORSDOF 5
ENDMDL
MODEL 2
REMARK VINA RESULT:      -5.6      2.274      2.663
REMARK  5 active torsions:
REMARK  status: ('A' for Active; 'I' for Inactive)
REMARK    1  A    between atoms: C_2  and  C_3 
REMARK    2  A    between atoms: C_2  and  N_16 
REMARK    3  A    between atoms: C_3  and  N_4 
REMARK       I    between atoms: N_4  and  C_5 
REMARK    4  A    between atoms: C_5  and  C_7 
REMARK    5  A    between atoms: C_7  and  N_9 
ROOT
HETATM    1  N   UNL     1     -42.036 -50.047  11.719  1.00  0.00    -0.357 N 
HETATM    2  C   UNL     1     -41.810 -48.727  11.381  1.00  0.00     0.242 C 
HETATM    3  O   UNL     1     -40.692 -48.302  11.096  1.00  0.00    -0.271 OA
HETATM    4  H   UNL     1     -42.971 -50.369  11.934  1.00  0.00     0.162 HD
ENDROOT
BRANCH   1   5
HETATM    5  C   UNL     1     -40.935 -50.997  11.833  1.00  0.00     0.158 C 
BRANCH   5   6
HETATM    6  C   UNL     1     -40.654 -51.489  13.292  1.00  0.00     0.236 C 
HETATM    7  C   UNL     1     -39.698 -50.462  13.937  1.00  0.00     0.044 C 
BRANCH   6   8
HETATM    8  N   UNL     1     -40.066 -52.860  13.315  1.00  0.00     0.098 N 
HETATM    9  C   UNL     1     -41.004 -53.914  12.838  1.00  0.00     0.299 C 
HETATM   10  C   UNL     1     -42.140 -54.231  13.825  1.00  0.00     0.198 C 
HETATM   11  O   UNL     1     -41.609 -54.675  15.079  1.00  0.00    -0.388 OA
HETATM   12  C   UNL     1     -40.731 -53.690  15.636  1.00  0.00     0.198 C 
HETATM   13  C   UNL     1     -39.603 -53.311  14.655  1.00  0.00     0.299 C 
ENDBRANCH   6   8
ENDBRANCH   5   6
ENDBRANCH   1   5
BRANCH   2  14
HETATM   14  C   UNL     1     -43.053 -47.847  11.342  1.00  0.00     0.196 C 
HETATM   15  C   UNL     1     -42.773 -46.467  11.931  1.00  0.00     0.044 C 
BRANCH  14  16
HETATM   16  N   UNL     1     -43.524 -47.753   9.972  1.00  0.00    -0.273 N 
HETATM   17  C   UNL     1     -44.785 -47.490   9.530  1.00  0.00     0.202 A 
HETATM   18  N   UNL     1     -44.800 -47.504   8.218  1.00  0.00    -0.346 N 
HETATM   19  C   UNL     1     -43.503 -47.783   7.897  1.00  0.00     0.198 A 
ATOM     20  HN  UNL     1     -45.589 -47.346   7.591  1.00  0.00     0.167 HD
HETATM   21  N   UNL     1     -42.680 -47.936   8.939  1.00  0.00    -0.292 N 
ATOM     22  HN  UNL     1     -41.680 -48.137   8.948  1.00  0.00     0.188 HD
ENDBRANCH  14  16
ENDBRANCH   2  14
TORSDOF 5
ENDMDL
MODEL 3
REMARK VINA RESULT:      -5.5      1.816      2.324
REMARK  5 active torsions:
REMARK  status: ('A' for Active; 'I' for Inactive)
REMARK    1  A    between atoms: C_2  and  C_3 
REMARK    2  A    between atoms: C_2  and  N_16 
REMARK    3  A    between atoms: C_3  and  N_4 
REMARK       I    between atoms: N_4  and  C_5 
REMARK    4  A    between atoms: C_5  and  C_7 
REMARK    5  A    between atoms: C_7  and  N_9 
ROOT
HETATM    1  N   UNL     1     -42.542 -50.959  12.280  1.00  0.00    -0.357 N 
HETATM    2  C   UNL     1     -41.457 -50.179  11.927  1.00  0.00     0.242 C 
HETATM    3  O   UNL     1     -40.417 -50.660  11.481  1.00  0.00    -0.271 OA
HETATM    4  H   UNL     1     -43.389 -50.531  12.631  1.00  0.00     0.162 HD
ENDROOT
BRANCH   1   5
HETATM    5  C   UNL     1     -42.479 -52.415  12.213  1.00  0.00     0.158 C 
BRANCH   5   6
HETATM    6  C   UNL     1     -43.318 -53.149  13.311  1.00  0.00     0.236 C 
HETATM    7  C   UNL     1     -42.415 -54.252  13.905  1.00  0.00     0.044 C 
BRANCH   6   8
HETATM    8  N   UNL     1     -44.579 -53.725  12.758  1.00  0.00     0.098 N 
HETATM    9  C   UNL     1     -45.641 -52.709  12.523  1.00  0.00     0.299 C 
HETATM   10  C   UNL     1     -46.285 -52.172  13.812  1.00  0.00     0.198 C 
HETATM   11  O   UNL     1     -46.880 -53.238  14.560  1.00  0.00    -0.388 OA
HETATM   12  C   UNL     1     -45.908 -54.241  14.876  1.00  0.00     0.198 C 
HETATM   13  C   UNL     1     -45.205 -54.772  13.610  1.00  0.00     0.299 C 
ENDBRANCH   6   8
ENDBRANCH   5   6
ENDBRANCH   1   5
BRANCH   2  14
HETATM   14  C   UNL     1     -41.659 -48.678  12.089  1.00  0.00     0.196 C 
HETATM   15  C   UNL     1     -40.324 -47.952  12.234  1.00  0.00     0.044 C 
BRANCH  14  16
HETATM   16  N   UNL     1     -42.415 -48.177  10.956  1.00  0.00    -0.273 N 
HETATM   17  C   UNL     1     -43.638 -47.577  10.956  1.00  0.00     0.202 A 
HETATM   18  N   UNL     1     -43.980 -47.281   9.724  1.00  0.00    -0.346 N 
HETATM   19  C   UNL     1     -42.916 -47.725   8.994  1.00  0.00     0.198 A 
ATOM     20  HN  UNL     1     -44.833 -46.829   9.394  1.00  0.00     0.167 HD
HETATM   21  N   UNL     1     -41.927 -48.275   9.704  1.00  0.00    -0.292 N 
ATOM     22  HN  UNL     1     -41.041 -48.664   9.384  1.00  0.00     0.188 HD
ENDBRANCH  14  16
ENDBRANCH   2  14
TORSDOF 5
ENDMDL
MODEL 4
REMARK VINA RESULT:      -5.4      3.822      5.072
REMARK  5 active torsions:
REMARK  status: ('A' for Active; 'I' for Inactive)
REMARK    1  A    between atoms: C_2  and  C_3 
REMARK    2  A    between atoms: C_2  and  N_16 
REMARK    3  A    between atoms: C_3  and  N_4 
REMARK       I    between atoms: N_4  and  C_5 
REMARK    4  A    between atoms: C_5  and  C_7 
REMARK    5  A    between atoms: C_7  and  N_9 
ROOT
HETATM    1  N   UNL     1     -40.662 -48.570  10.896  1.00  0.00    -0.357 N 
HETATM    2  C   UNL     1     -41.993 -48.409  11.228  1.00  0.00     0.242 C 
HETATM    3  O   UNL     1     -42.593 -49.207  11.947  1.00  0.00    -0.271 OA
HETATM    4  H   UNL     1     -40.192 -47.888  10.314  1.00  0.00     0.162 HD
ENDROOT
BRANCH   1   5
HETATM    5  C   UNL     1     -39.914 -49.748  11.320  1.00  0.00     0.158 C 
BRANCH   5   6
HETATM    6  C   UNL     1     -38.614 -49.431  12.132  1.00  0.00     0.236 C 
HETATM    7  C   UNL     1     -37.430 -50.022  11.336  1.00  0.00     0.044 C 
BRANCH   6   8
HETATM    8  N   UNL     1     -38.668 -49.993  13.514  1.00  0.00     0.098 N 
HETATM    9  C   UNL     1     -39.869 -49.563  14.281  1.00  0.00     0.299 C 
HETATM   10  C   UNL     1     -39.830 -48.092  14.728  1.00  0.00     0.198 C 
HETATM   11  O   UNL     1     -38.689 -47.849  15.560  1.00  0.00    -0.388 OA
HETATM   12  C   UNL     1     -37.479 -48.188  14.873  1.00  0.00     0.198 C 
HETATM   13  C   UNL     1     -37.499 -49.645  14.367  1.00  0.00     0.299 C 
ENDBRANCH   6   8
ENDBRANCH   5   6
ENDBRANCH   1   5
BRANCH   2  14
HETATM   14  C   UNL     1     -42.650 -47.150  10.678  1.00  0.00     0.196 C 
HETATM   15  C   UNL     1     -41.615 -46.067  10.386  1.00  0.00     0.044 C 
BRANCH  14  16
HETATM   16  N   UNL     1     -43.409 -47.493   9.489  1.00  0.00    -0.273 N 
HETATM   17  C   UNL     1     -44.758 -47.453   9.309  1.00  0.00     0.202 A 
HETATM   18  N   UNL     1     -45.049 -47.851   8.093  1.00  0.00    -0.346 N 
HETATM   19  C   UNL     1     -43.824 -48.127   7.557  1.00  0.00     0.198 A 
ATOM     20  HN  UNL     1     -45.966 -47.935   7.655  1.00  0.00     0.167 HD
HETATM   21  N   UNL     1     -42.786 -47.915   8.372  1.00  0.00    -0.292 N 
ATOM     22  HN  UNL     1     -41.790 -48.039   8.194  1.00  0.00     0.188 HD
ENDBRANCH  14  16
ENDBRANCH   2  14
TORSDOF 5
ENDMDL
MODEL 5
REMARK VINA RESULT:      -5.4      3.467      4.443
REMARK  5 active torsions:
REMARK  status: ('A' for Active; 'I' for Inactive)
REMARK    1  A    between atoms: C_2  and  C_3 
REMARK    2  A    between atoms: C_2  and  N_16 
REMARK    3  A    between atoms: C_3  and  N_4 
REMARK       I    between atoms: N_4  and  C_5 
REMARK    4  A    between atoms: C_5  and  C_7 
REMARK    5  A    between atoms: C_7  and  N_9 
ROOT
HETATM    1  N   UNL     1     -42.699 -52.054  12.201  1.00  0.00    -0.357 N 
HETATM    2  C   UNL     1     -41.368 -51.717  12.044  1.00  0.00     0.242 C 
HETATM    3  O   UNL     1     -40.465 -52.548  12.120  1.00  0.00    -0.271 OA
HETATM    4  H   UNL     1     -43.420 -51.349  12.118  1.00  0.00     0.162 HD
ENDROOT
BRANCH   1   5
HETATM    5  C   UNL     1     -43.098 -53.414  12.547  1.00  0.00     0.158 C 
BRANCH   5   6
HETATM    6  C   UNL     1     -43.938 -53.526  13.862  1.00  0.00     0.236 C 
HETATM    7  C   UNL     1     -43.320 -54.672  14.694  1.00  0.00     0.044 C 
BRANCH   6   8
HETATM    8  N   UNL     1     -45.381 -53.782  13.583  1.00  0.00     0.098 N 
HETATM    9  C   UNL     1     -46.073 -52.631  12.940  1.00  0.00     0.299 C 
HETATM   10  C   UNL     1     -46.320 -51.445  13.887  1.00  0.00     0.198 C 
HETATM   11  O   UNL     1     -47.123 -51.849  15.002  1.00  0.00    -0.388 OA
HETATM   12  C   UNL     1     -46.500 -52.925  15.712  1.00  0.00     0.198 C 
HETATM   13  C   UNL     1     -46.192 -54.118  14.785  1.00  0.00     0.299 C 
ENDBRANCH   6   8
ENDBRANCH   5   6
ENDBRANCH   1   5
BRANCH   2  14
HETATM   14  C   UNL     1     -41.104 -50.251  11.726  1.00  0.00     0.196 C 
HETATM   15  C   UNL     1     -41.979 -49.333  12.576  1.00  0.00     0.044 C 
BRANCH  14  16
HETATM   16  N   UNL     1     -39.694 -49.970  11.922  1.00  0.00    -0.273 N 
HETATM   17  C   UNL     1     -39.075 -49.502  13.041  1.00  0.00     0.202 A 
HETATM   18  N   UNL     1     -37.790 -49.372  12.808  1.00  0.00    -0.346 N 
HETATM   19  C   UNL     1     -37.668 -49.781  11.512  1.00  0.00     0.198 A 
ATOM     20  HN  UNL     1     -37.061 -49.043  13.441  1.00  0.00     0.167 HD
HETATM   21  N   UNL     1     -38.807 -50.167  10.928  1.00  0.00    -0.292 N 
ATOM     22  HN  UNL     1     -38.962 -50.516   9.982  1.00  0.00     0.188 HD
ENDBRANCH  14  16
ENDBRANCH   2  14
TORSDOF 5
ENDMDL
MODEL 6
REMARK VINA RESULT:      -5.4      4.619      7.815
REMARK  5 active torsions:
REMARK  status: ('A' for Active; 'I' for Inactive)
REMARK    1  A    between atoms: C_2  and  C_3 
REMARK    2  A    between atoms: C_2  and  N_16 
REMARK    3  A    between atoms: C_3  and  N_4 
REMARK       I    between atoms: N_4  and  C_5 
REMARK    4  A    between atoms: C_5  and  C_7 
REMARK    5  A    between atoms: C_7  and  N_9 
ROOT
HETATM    1  N   UNL     1     -40.525 -45.832  10.374  1.00  0.00    -0.357 N 
HETATM    2  C   UNL     1     -41.861 -46.043  10.090  1.00  0.00     0.242 C 
HETATM    3  O   UNL     1     -42.647 -45.117   9.898  1.00  0.00    -0.271 OA
HETATM    4  H   UNL     1     -39.900 -46.616  10.512  1.00  0.00     0.162 HD
ENDROOT
BRANCH   1   5
HETATM    5  C   UNL     1     -39.991 -44.485  10.538  1.00  0.00     0.158 C 
BRANCH   5   6
HETATM    6  C   UNL     1     -39.913 -43.997  12.023  1.00  0.00     0.236 C 
HETATM    7  C   UNL     1     -39.524 -45.223  12.879  1.00  0.00     0.044 C 
BRANCH   6   8
HETATM    8  N   UNL     1     -41.202 -43.405  12.485  1.00  0.00     0.098 N 
HETATM    9  C   UNL     1     -41.654 -42.252  11.659  1.00  0.00     0.299 C 
HETATM   10  C   UNL     1     -40.827 -40.973  11.869  1.00  0.00     0.198 C 
HETATM   11  O   UNL     1     -40.883 -40.557  13.238  1.00  0.00    -0.388 OA
HETATM   12  C   UNL     1     -40.412 -41.596  14.104  1.00  0.00     0.198 C 
HETATM   13  C   UNL     1     -41.187 -42.912  13.889  1.00  0.00     0.299 C 
ENDBRANCH   6   8
ENDBRANCH   5   6
ENDBRANCH   1   5
BRANCH   2  14
HETATM   14  C   UNL     1     -42.279 -47.504   9.989  1.00  0.00     0.196 C 
HETATM   15  C   UNL     1     -42.251 -48.185  11.355  1.00  0.00     0.044 C 
BRANCH  14  16
HETATM   16  N   UNL     1     -43.597 -47.579   9.386  1.00  0.00    -0.273 N 
HETATM   17  C   UNL     1     -43.918 -47.856   8.091  1.00  0.00     0.202 A 
HETATM   18  N   UNL     1     -45.222 -47.816   7.947  1.00  0.00    -0.346 N 
HETATM   19  C   UNL     1     -45.662 -47.509   9.201  1.00  0.00     0.198 A 
ATOM     20  HN  UNL     1     -45.771 -47.976   7.102  1.00  0.00     0.167 HD
HETATM   21  N   UNL     1     -44.704 -47.361  10.121  1.00  0.00    -0.292 N 
ATOM     22  HN  UNL     1     -44.790 -47.143  11.113  1.00  0.00     0.188 HD
ENDBRANCH  14  16
ENDBRANCH   2  14
TORSDOF 5
ENDMDL
MODEL 7
REMARK VINA RESULT:      -5.3      1.076      1.803
REMARK  5 active torsions:
REMARK  status: ('A' for Active; 'I' for Inactive)
REMARK    1  A    between atoms: C_2  and  C_3 
REMARK    2  A    between atoms: C_2  and  N_16 
REMARK    3  A    between atoms: C_3  and  N_4 
REMARK       I    between atoms: N_4  and  C_5 
REMARK    4  A    between atoms: C_5  and  C_7 
REMARK    5  A    between atoms: C_7  and  N_9 
ROOT
HETATM    1  N   UNL     1     -42.966 -49.791  12.286  1.00  0.00    -0.357 N 
HETATM    2  C   UNL     1     -42.328 -48.809  11.553  1.00  0.00     0.242 C 
HETATM    3  O   UNL     1     -41.173 -48.933  11.149  1.00  0.00    -0.271 OA
HETATM    4  H   UNL     1     -43.922 -49.664  12.591  1.00  0.00     0.162 HD
ENDROOT
BRANCH   1   5
HETATM    5  C   UNL     1     -42.268 -51.007  12.689  1.00  0.00     0.158 C 
BRANCH   5   6
HETATM    6  C   UNL     1     -43.173 -52.066  13.401  1.00  0.00     0.236 C 
HETATM    7  C   UNL     1     -42.732 -53.454  12.884  1.00  0.00     0.044 C 
BRANCH   6   8
HETATM    8  N   UNL     1     -44.622 -51.830  13.137  1.00  0.00     0.098 N 
HETATM    9  C   UNL     1     -45.348 -51.247  14.299  1.00  0.00     0.299 C 
HETATM   10  C   UNL     1     -45.574 -52.238  15.453  1.00  0.00     0.198 C 
HETATM   11  O   UNL     1     -46.333 -53.367  15.006  1.00  0.00    -0.388 OA
HETATM   12  C   UNL     1     -45.674 -54.021  13.916  1.00  0.00     0.198 C 
HETATM   13  C   UNL     1     -45.387 -53.048  12.755  1.00  0.00     0.299 C 
ENDBRANCH   6   8
ENDBRANCH   5   6
ENDBRANCH   1   5
BRANCH   2  14
HETATM   14  C   UNL     1     -43.174 -47.580  11.244  1.00  0.00     0.196 C 
HETATM   15  C   UNL     1     -42.402 -46.292  11.520  1.00  0.00     0.044 C 
BRANCH  14  16
HETATM   16  N   UNL     1     -43.618 -47.646   9.864  1.00  0.00    -0.273 N 
HETATM   17  C   UNL     1     -44.879 -47.487   9.374  1.00  0.00     0.202 A 
HETATM   18  N   UNL     1     -44.863 -47.633   8.070  1.00  0.00    -0.346 N 
HETATM   19  C   UNL     1     -43.549 -47.882   7.803  1.00  0.00     0.198 A 
ATOM     20  HN  UNL     1     -45.644 -47.575   7.416  1.00  0.00     0.167 HD
HETATM   21  N   UNL     1     -42.743 -47.892   8.869  1.00  0.00    -0.292 N 
ATOM     22  HN  UNL     1     -41.736 -48.045   8.916  1.00  0.00     0.188 HD
ENDBRANCH  14  16
ENDBRANCH   2  14
TORSDOF 5
ENDMDL
MODEL 8
REMARK VINA RESULT:      -5.2      3.890      4.718
REMARK  5 active torsions:
REMARK  status: ('A' for Active; 'I' for Inactive)
REMARK    1  A    between atoms: C_2  and  C_3 
REMARK    2  A    between atoms: C_2  and  N_16 
REMARK    3  A    between atoms: C_3  and  N_4 
REMARK       I    between atoms: N_4  and  C_5 
REMARK    4  A    between atoms: C_5  and  C_7 
REMARK    5  A    between atoms: C_7  and  N_9 
ROOT
HETATM    1  N   UNL     1     -40.588 -46.450  12.809  1.00  0.00    -0.357 N 
HETATM    2  C   UNL     1     -41.771 -46.496  12.097  1.00  0.00     0.242 C 
HETATM    3  O   UNL     1     -42.729 -47.178  12.454  1.00  0.00    -0.271 OA
HETATM    4  H   UNL     1     -39.823 -45.866  12.496  1.00  0.00     0.162 HD
ENDROOT
BRANCH   1   5
HETATM    5  C   UNL     1     -40.386 -47.279  13.992  1.00  0.00     0.158 C 
BRANCH   5   6
HETATM    6  C   UNL     1     -39.205 -48.299  13.873  1.00  0.00     0.236 C 
HETATM    7  C   UNL     1     -37.912 -47.535  14.237  1.00  0.00     0.044 C 
BRANCH   6   8
HETATM    8  N   UNL     1     -39.114 -48.889  12.505  1.00  0.00     0.098 N 
HETATM    9  C   UNL     1     -40.133 -49.943  12.246  1.00  0.00     0.299 C 
HETATM   10  C   UNL     1     -39.868 -51.263  12.989  1.00  0.00     0.198 C 
HETATM   11  O   UNL     1     -38.597 -51.806  12.613  1.00  0.00    -0.388 OA
HETATM   12  C   UNL     1     -37.547 -50.870  12.880  1.00  0.00     0.198 C 
HETATM   13  C   UNL     1     -37.800 -49.514  12.189  1.00  0.00     0.299 C 
ENDBRANCH   6   8
ENDBRANCH   5   6
ENDBRANCH   1   5
BRANCH   2  14
HETATM   14  C   UNL     1     -41.818 -45.604  10.862  1.00  0.00     0.196 C 
HETATM   15  C   UNL     1     -40.416 -45.320  10.331  1.00  0.00     0.044 C 
BRANCH  14  16
HETATM   16  N   UNL     1     -42.649 -46.236   9.854  1.00  0.00    -0.273 N 
HETATM   17  C   UNL     1     -43.715 -45.710   9.189  1.00  0.00     0.202 A 
HETATM   18  N   UNL     1     -44.202 -46.609   8.365  1.00  0.00    -0.346 N 
HETATM   19  C   UNL     1     -43.387 -47.684   8.563  1.00  0.00     0.198 A 
ATOM     20  HN  UNL     1     -44.997 -46.523   7.732  1.00  0.00     0.167 HD
HETATM   21  N   UNL     1     -42.413 -47.503   9.461  1.00  0.00    -0.292 N 
ATOM     22  HN  UNL     1     -41.686 -48.150   9.766  1.00  0.00     0.188 HD
ENDBRANCH  14  16
ENDBRANCH   2  14
TORSDOF 5
ENDMDL
MODEL 9
REMARK VINA RESULT:      -5.2      4.068      7.060
REMARK  5 active torsions:
REMARK  status: ('A' for Active; 'I' for Inactive)
REMARK    1  A    between atoms: C_2  and  C_3 
REMARK    2  A    between atoms: C_2  and  N_16 
REMARK    3  A    between atoms: C_3  and  N_4 
REMARK       I    between atoms: N_4  and  C_5 
REMARK    4  A    between atoms: C_5  and  C_7 
REMARK    5  A    between atoms: C_7  and  N_9 
ROOT
HETATM    1  N   UNL     1     -40.514 -46.142  10.306  1.00  0.00    -0.357 N 
HETATM    2  C   UNL     1     -40.490 -47.253  11.126  1.00  0.00     0.242 C 
HETATM    3  O   UNL     1     -39.892 -47.266  12.200  1.00  0.00    -0.271 OA
HETATM    4  H   UNL     1     -41.028 -46.158   9.434  1.00  0.00     0.162 HD
ENDROOT
BRANCH   1   5
HETATM    5  C   UNL     1     -39.758 -44.940  10.640  1.00  0.00     0.158 C 
BRANCH   5   6
HETATM    6  C   UNL     1     -40.529 -43.922  11.545  1.00  0.00     0.236 C 
HETATM    7  C   UNL     1     -39.743 -43.816  12.871  1.00  0.00     0.044 C 
BRANCH   6   8
HETATM    8  N   UNL     1     -41.938 -44.347  11.787  1.00  0.00     0.098 N 
HETATM    9  C   UNL     1     -42.919 -43.690  10.880  1.00  0.00     0.299 C 
HETATM   10  C   UNL     1     -43.162 -42.205  11.196  1.00  0.00     0.198 C 
HETATM   11  O   UNL     1     -43.654 -42.048  12.532  1.00  0.00    -0.388 OA
HETATM   12  C   UNL     1     -42.739 -42.611  13.479  1.00  0.00     0.198 C 
HETATM   13  C   UNL     1     -42.432 -44.089  13.167  1.00  0.00     0.299 C 
ENDBRANCH   6   8
ENDBRANCH   5   6
ENDBRANCH   1   5
BRANCH   2  14
HETATM   14  C   UNL     1     -41.295 -48.446  10.624  1.00  0.00     0.196 C 
HETATM   15  C   UNL     1     -41.490 -49.484  11.725  1.00  0.00     0.044 C 
BRANCH  14  16
HETATM   16  N   UNL     1     -42.566 -47.975  10.107  1.00  0.00    -0.273 N 
HETATM   17  C   UNL     1     -43.640 -47.509  10.805  1.00  0.00     0.202 A 
HETATM   18  N   UNL     1     -44.600 -47.192   9.968  1.00  0.00    -0.346 N 
HETATM   19  C   UNL     1     -44.058 -47.484   8.750  1.00  0.00     0.198 A 
ATOM     20  HN  UNL     1     -45.526 -46.820  10.177  1.00  0.00     0.167 HD
HETATM   21  N   UNL     1     -42.809 -47.959   8.782  1.00  0.00    -0.292 N 
ATOM     22  HN  UNL     1     -42.203 -48.235   8.011  1.00  0.00     0.188 HD
ENDBRANCH  14  16
ENDBRANCH   2  14
TORSDOF 5
ENDMDL
