MODEL 1
REMARK VINA RESULT:      -7.4      0.000      0.000
REMARK  3 active torsions:
REMARK  status: ('A' for Active; 'I' for Inactive)
REMARK    1  A    between atoms: N_5  and  C_6 
REMARK    2  A    between atoms: C_6  and  C_7 
REMARK       I    between atoms: C_7  and  N_9 
REMARK    3  A    between atoms: N_9  and  C_10 
ROOT
HETATM    1  C   UNL     1     -46.120 -52.527  12.427  1.00  0.00     0.070 C 
HETATM    2  C   UNL     1     -44.738 -52.998  12.830  1.00  0.00     0.029 A 
HETATM    3  N   UNL     1     -43.736 -52.465  12.207  1.00  0.00    -0.299 N 
ATOM      4  HN  UNL     1     -43.888 -51.771  11.475  1.00  0.00     0.187 HD
HETATM    5  N   UNL     1     -42.468 -52.852  12.549  1.00  0.00    -0.247 N 
HETATM    6  C   UNL     1     -42.187 -53.768  13.546  1.00  0.00     0.283 A 
HETATM    7  O   UNL     1     -41.038 -54.043  13.890  1.00  0.00    -0.265 OA
HETATM    8  C   UNL     1     -43.358 -54.396  14.210  1.00  0.00     0.121 A 
HETATM    9  C   UNL     1     -43.083 -55.384  15.197  1.00  0.00     0.105 C 
HETATM   10  N   UNL     1     -42.921 -56.194  16.008  1.00  0.00    -0.191 NA
HETATM   11  C   UNL     1     -44.614 -54.033  13.895  1.00  0.00    -0.012 A 
HETATM   12  C   UNL     1     -45.869 -54.571  14.519  1.00  0.00     0.052 C 
ENDROOT
BRANCH   5  13
HETATM   13  C   UNL     1     -41.380 -52.246  11.784  1.00  0.00     0.255 C 
BRANCH  13  14
HETATM   14  C   UNL     1     -41.123 -50.791  12.166  1.00  0.00     0.238 C 
HETATM   15  O   UNL     1     -40.588 -50.509  13.238  1.00  0.00    -0.272 OA
HETATM   16  N   UNL     1     -41.619 -49.835  11.295  1.00  0.00    -0.350 N 
HETATM   17  H   UNL     1     -42.110 -50.160  10.467  1.00  0.00     0.163 HD
BRANCH  16  18
HETATM   18  C   UNL     1     -41.459 -48.383  11.495  1.00  0.00     0.034 C 
HETATM   19  C   UNL     1     -39.967 -48.026  11.716  1.00  0.00     0.035 C 
HETATM   20  C   UNL     1     -39.787 -46.511  11.897  1.00  0.00    -0.012 C 
HETATM   21  C   UNL     1     -40.615 -46.043  13.106  1.00  0.00     0.009 C 
HETATM   22  C   UNL     1     -40.277 -45.791  10.632  1.00  0.00     0.009 C 
HETATM   23  C   UNL     1     -42.104 -46.345  12.876  1.00  0.00    -0.012 C 
HETATM   24  C   UNL     1     -42.578 -45.618  11.609  1.00  0.00     0.009 C 
HETATM   25  C   UNL     1     -42.295 -47.862  12.695  1.00  0.00     0.035 C 
HETATM   26  C   UNL     1     -41.764 -46.101  10.397  1.00  0.00    -0.012 C 
HETATM   27  C   UNL     1     -41.950 -47.622  10.231  1.00  0.00     0.035 C 
ENDBRANCH  16  18
ENDBRANCH  13  14
ENDBRANCH   5  13
TORSDOF 3
ENDMDL
MODEL 2
REMARK VINA RESULT:      -7.4      2.135      7.683
REMARK  3 active torsions:
REMARK  status: ('A' for Active; 'I' for Inactive)
REMARK    1  A    between atoms: N_5  and  C_6 
REMARK    2  A    between atoms: C_6  and  C_7 
REMARK       I    between atoms: C_7  and  N_9 
REMARK    3  A    between atoms: N_9  and  C_10 
ROOT
HETATM    1  C   UNL     1     -44.890 -47.570   9.469  1.00  0.00     0.070 C 
HETATM    2  C   UNL     1     -43.484 -47.416  10.011  1.00  0.00     0.029 A 
HETATM    3  N   UNL     1     -42.912 -48.487  10.459  1.00  0.00    -0.299 N 
ATOM      4  HN  UNL     1     -43.402 -49.381  10.450  1.00  0.00     0.187 HD
HETATM    5  N   UNL     1     -41.635 -48.395  10.945  1.00  0.00    -0.247 N 
HETATM    6  C   UNL     1     -40.903 -47.223  10.966  1.00  0.00     0.283 A 
HETATM    7  O   UNL     1     -39.730 -47.179  11.335  1.00  0.00    -0.265 OA
HETATM    8  C   UNL     1     -41.603 -46.003  10.489  1.00  0.00     0.121 A 
HETATM    9  C   UNL     1     -40.881 -44.778  10.560  1.00  0.00     0.105 C 
HETATM   10  N   UNL     1     -40.343 -43.754  10.593  1.00  0.00    -0.191 NA
HETATM   11  C   UNL     1     -42.856 -46.064  10.003  1.00  0.00    -0.012 A 
HETATM   12  C   UNL     1     -43.650 -44.909   9.465  1.00  0.00     0.052 C 
ENDROOT
BRANCH   5  13
HETATM   13  C   UNL     1     -41.056 -49.629  11.473  1.00  0.00     0.255 C 
BRANCH  13  14
HETATM   14  C   UNL     1     -41.918 -50.279  12.552  1.00  0.00     0.238 C 
HETATM   15  O   UNL     1     -41.937 -49.826  13.697  1.00  0.00    -0.272 OA
HETATM   16  N   UNL     1     -42.572 -51.445  12.190  1.00  0.00    -0.350 N 
HETATM   17  H   UNL     1     -42.442 -51.784  11.241  1.00  0.00     0.163 HD
BRANCH  16  18
HETATM   18  C   UNL     1     -43.452 -52.204  13.096  1.00  0.00     0.034 C 
HETATM   19  C   UNL     1     -44.101 -53.398  12.348  1.00  0.00     0.035 C 
HETATM   20  C   UNL     1     -44.998 -54.214  13.292  1.00  0.00    -0.012 C 
HETATM   21  C   UNL     1     -46.098 -53.300  13.860  1.00  0.00     0.009 C 
HETATM   22  C   UNL     1     -44.147 -54.766  14.444  1.00  0.00     0.009 C 
HETATM   23  C   UNL     1     -45.468 -52.141  14.648  1.00  0.00    -0.012 C 
HETATM   24  C   UNL     1     -44.621 -52.711  15.796  1.00  0.00     0.009 C 
HETATM   25  C   UNL     1     -44.567 -51.317  13.710  1.00  0.00     0.035 C 
HETATM   26  C   UNL     1     -43.509 -53.606  15.226  1.00  0.00    -0.012 C 
HETATM   27  C   UNL     1     -42.620 -52.778  14.278  1.00  0.00     0.035 C 
ENDBRANCH  16  18
ENDBRANCH  13  14
ENDBRANCH   5  13
TORSDOF 3
ENDMDL
MODEL 3
REMARK VINA RESULT:      -7.2      1.946      7.782
REMARK  3 active torsions:
REMARK  status: ('A' for Active; 'I' for Inactive)
REMARK    1  A    between atoms: N_5  and  C_6 
REMARK    2  A    between atoms: C_6  and  C_7 
REMARK       I    between atoms: C_7  and  N_9 
REMARK    3  A    between atoms: N_9  and  C_10 
ROOT
HETATM    1  C   UNL     1     -38.245 -47.637  14.381  1.00  0.00     0.070 C 
HETATM    2  C   UNL     1     -39.198 -47.779  13.212  1.00  0.00     0.029 A 
HETATM    3  N   UNL     1     -39.502 -48.984  12.851  1.00  0.00    -0.299 N 
ATOM      4  HN  UNL     1     -39.102 -49.788  13.335  1.00  0.00     0.187 HD
HETATM    5  N   UNL     1     -40.371 -49.158  11.808  1.00  0.00    -0.247 N 
HETATM    6  C   UNL     1     -40.969 -48.116  11.123  1.00  0.00     0.283 A 
HETATM    7  O   UNL     1     -41.806 -48.296  10.241  1.00  0.00    -0.265 OA
HETATM    8  C   UNL     1     -40.564 -46.746  11.530  1.00  0.00     0.121 A 
HETATM    9  C   UNL     1     -41.127 -45.665  10.795  1.00  0.00     0.105 C 
HETATM   10  N   UNL     1     -41.553 -44.747  10.232  1.00  0.00    -0.191 NA
HETATM   11  C   UNL     1     -39.715 -46.545  12.554  1.00  0.00    -0.012 A 
HETATM   12  C   UNL     1     -39.260 -45.212  13.073  1.00  0.00     0.052 C 
ENDROOT
BRANCH   5  13
HETATM   13  C   UNL     1     -40.646 -50.541  11.421  1.00  0.00     0.255 C 
BRANCH  13  14
HETATM   14  C   UNL     1     -41.358 -51.334  12.513  1.00  0.00     0.238 C 
HETATM   15  O   UNL     1     -40.784 -51.603  13.568  1.00  0.00    -0.272 OA
HETATM   16  N   UNL     1     -42.619 -51.812  12.196  1.00  0.00    -0.350 N 
HETATM   17  H   UNL     1     -42.984 -51.600  11.272  1.00  0.00     0.163 HD
BRANCH  16  18
HETATM   18  C   UNL     1     -43.457 -52.589  13.125  1.00  0.00     0.034 C 
HETATM   19  C   UNL     1     -43.739 -51.775  14.413  1.00  0.00     0.035 C 
HETATM   20  C   UNL     1     -44.637 -52.566  15.377  1.00  0.00    -0.012 C 
HETATM   21  C   UNL     1     -43.945 -53.891  15.744  1.00  0.00     0.009 C 
HETATM   22  C   UNL     1     -45.977 -52.864  14.687  1.00  0.00     0.009 C 
HETATM   23  C   UNL     1     -43.707 -54.730  14.478  1.00  0.00    -0.012 C 
HETATM   24  C   UNL     1     -45.055 -55.019  13.802  1.00  0.00     0.009 C 
HETATM   25  C   UNL     1     -42.806 -53.945  13.507  1.00  0.00     0.035 C 
HETATM   26  C   UNL     1     -45.737 -53.696  13.417  1.00  0.00    -0.012 C 
HETATM   27  C   UNL     1     -44.824 -52.910  12.456  1.00  0.00     0.035 C 
ENDBRANCH  16  18
ENDBRANCH  13  14
ENDBRANCH   5  13
TORSDOF 3
ENDMDL
MODEL 4
REMARK VINA RESULT:      -7.1      1.952      7.255
REMARK  3 active torsions:
REMARK  status: ('A' for Active; 'I' for Inactive)
REMARK    1  A    between atoms: N_5  and  C_6 
REMARK    2  A    between atoms: C_6  and  C_7 
REMARK       I    between atoms: C_7  and  N_9 
REMARK    3  A    between atoms: N_9  and  C_10 
ROOT
HETATM    1  C   UNL     1     -43.101 -47.300   9.320  1.00  0.00     0.070 C 
HETATM    2  C   UNL     1     -42.084 -47.672  10.379  1.00  0.00     0.029 A 
HETATM    3  N   UNL     1     -41.951 -48.932  10.642  1.00  0.00    -0.299 N 
ATOM      4  HN  UNL     1     -42.519 -49.627  10.158  1.00  0.00     0.187 HD
HETATM    5  N   UNL     1     -41.033 -49.314  11.583  1.00  0.00    -0.247 N 
HETATM    6  C   UNL     1     -40.213 -48.430  12.260  1.00  0.00     0.283 A 
HETATM    7  O   UNL     1     -39.340 -48.802  13.044  1.00  0.00    -0.265 OA
HETATM    8  C   UNL     1     -40.421 -46.988  11.970  1.00  0.00     0.121 A 
HETATM    9  C   UNL     1     -39.624 -46.064  12.703  1.00  0.00     0.105 C 
HETATM   10  N   UNL     1     -39.004 -45.266  13.268  1.00  0.00    -0.191 NA
HETATM   11  C   UNL     1     -41.314 -46.585  11.048  1.00  0.00    -0.012 A 
HETATM   12  C   UNL     1     -41.587 -45.164  10.649  1.00  0.00     0.052 C 
ENDROOT
BRANCH   5  13
HETATM   13  C   UNL     1     -40.956 -50.746  11.866  1.00  0.00     0.255 C 
BRANCH  13  14
HETATM   14  C   UNL     1     -41.882 -51.181  12.998  1.00  0.00     0.238 C 
HETATM   15  O   UNL     1     -41.442 -51.363  14.134  1.00  0.00    -0.272 OA
HETATM   16  N   UNL     1     -43.192 -51.456  12.643  1.00  0.00    -0.350 N 
HETATM   17  H   UNL     1     -43.449 -51.346  11.666  1.00  0.00     0.163 HD
BRANCH  16  18
HETATM   18  C   UNL     1     -44.228 -51.880  13.602  1.00  0.00     0.034 C 
HETATM   19  C   UNL     1     -44.467 -50.779  14.666  1.00  0.00     0.035 C 
HETATM   20  C   UNL     1     -45.567 -51.199  15.653  1.00  0.00    -0.012 C 
HETATM   21  C   UNL     1     -45.152 -52.508  16.348  1.00  0.00     0.009 C 
HETATM   22  C   UNL     1     -46.877 -51.423  14.883  1.00  0.00     0.009 C 
HETATM   23  C   UNL     1     -44.962 -53.622  15.305  1.00  0.00    -0.012 C 
HETATM   24  C   UNL     1     -46.280 -53.833  14.545  1.00  0.00     0.009 C 
HETATM   25  C   UNL     1     -43.860 -53.210  14.312  1.00  0.00     0.035 C 
HETATM   26  C   UNL     1     -46.684 -52.531  13.834  1.00  0.00    -0.012 C 
HETATM   27  C   UNL     1     -45.571 -52.118  12.852  1.00  0.00     0.035 C 
ENDBRANCH  16  18
ENDBRANCH  13  14
ENDBRANCH   5  13
TORSDOF 3
ENDMDL
MODEL 5
REMARK VINA RESULT:      -7.1      2.262      7.698
REMARK  3 active torsions:
REMARK  status: ('A' for Active; 'I' for Inactive)
REMARK    1  A    between atoms: N_5  and  C_6 
REMARK    2  A    between atoms: C_6  and  C_7 
REMARK       I    between atoms: C_7  and  N_9 
REMARK    3  A    between atoms: N_9  and  C_10 
ROOT
HETATM    1  C   UNL     1     -38.884 -47.594  15.026  1.00  0.00     0.070 C 
HETATM    2  C   UNL     1     -39.582 -47.734  13.689  1.00  0.00     0.029 A 
HETATM    3  N   UNL     1     -40.030 -48.909  13.386  1.00  0.00    -0.299 N 
ATOM      4  HN  UNL     1     -39.902 -49.695  14.023  1.00  0.00     0.187 HD
HETATM    5  N   UNL     1     -40.680 -49.077  12.192  1.00  0.00    -0.247 N 
HETATM    6  C   UNL     1     -40.911 -48.053  11.292  1.00  0.00     0.283 A 
HETATM    7  O   UNL     1     -41.566 -48.209  10.263  1.00  0.00    -0.265 OA
HETATM    8  C   UNL     1     -40.344 -46.726  11.647  1.00  0.00     0.121 A 
HETATM    9  C   UNL     1     -40.523 -45.678  10.702  1.00  0.00     0.105 C 
HETATM   10  N   UNL     1     -40.638 -44.786   9.972  1.00  0.00    -0.191 NA
HETATM   11  C   UNL     1     -39.704 -46.533  12.814  1.00  0.00    -0.012 A 
HETATM   12  C   UNL     1     -39.119 -45.236  13.293  1.00  0.00     0.052 C 
ENDROOT
BRANCH   5  13
HETATM   13  C   UNL     1     -41.130 -50.434  11.888  1.00  0.00     0.255 C 
BRANCH  13  14
HETATM   14  C   UNL     1     -42.013 -51.029  12.981  1.00  0.00     0.238 C 
HETATM   15  O   UNL     1     -41.515 -51.496  14.005  1.00  0.00    -0.272 OA
HETATM   16  N   UNL     1     -43.367 -51.103  12.698  1.00  0.00    -0.350 N 
HETATM   17  H   UNL     1     -43.680 -50.755  11.795  1.00  0.00     0.163 HD
BRANCH  16  18
HETATM   18  C   UNL     1     -44.371 -51.638  13.634  1.00  0.00     0.034 C 
HETATM   19  C   UNL     1     -44.030 -53.100  14.019  1.00  0.00     0.035 C 
HETATM   20  C   UNL     1     -45.055 -53.658  15.018  1.00  0.00    -0.012 C 
HETATM   21  C   UNL     1     -46.458 -53.603  14.388  1.00  0.00     0.009 C 
HETATM   22  C   UNL     1     -45.033 -52.803  16.293  1.00  0.00     0.009 C 
HETATM   23  C   UNL     1     -46.829 -52.150  14.050  1.00  0.00    -0.012 C 
HETATM   24  C   UNL     1     -46.802 -51.310  15.335  1.00  0.00     0.009 C 
HETATM   25  C   UNL     1     -45.807 -51.583  13.048  1.00  0.00     0.035 C 
HETATM   26  C   UNL     1     -45.395 -51.348  15.952  1.00  0.00    -0.012 C 
HETATM   27  C   UNL     1     -44.377 -50.791  14.939  1.00  0.00     0.035 C 
ENDBRANCH  16  18
ENDBRANCH  13  14
ENDBRANCH   5  13
TORSDOF 3
ENDMDL
MODEL 6
REMARK VINA RESULT:      -7.0      2.585      4.085
REMARK  3 active torsions:
REMARK  status: ('A' for Active; 'I' for Inactive)
REMARK    1  A    between atoms: N_5  and  C_6 
REMARK    2  A    between atoms: C_6  and  C_7 
REMARK       I    between atoms: C_7  and  N_9 
REMARK    3  A    between atoms: N_9  and  C_10 
ROOT
HETATM    1  C   UNL     1     -45.056 -52.179  17.127  1.00  0.00     0.070 C 
HETATM    2  C   UNL     1     -44.839 -52.521  15.668  1.00  0.00     0.029 A 
HETATM    3  N   UNL     1     -43.758 -53.170  15.376  1.00  0.00    -0.299 N 
ATOM      4  HN  UNL     1     -43.090 -53.422  16.104  1.00  0.00     0.187 HD
HETATM    5  N   UNL     1     -43.529 -53.511  14.070  1.00  0.00    -0.247 N 
HETATM    6  C   UNL     1     -44.401 -53.224  13.036  1.00  0.00     0.283 A 
HETATM    7  O   UNL     1     -44.213 -53.609  11.883  1.00  0.00    -0.265 OA
HETATM    8  C   UNL     1     -45.609 -52.438  13.395  1.00  0.00     0.121 A 
HETATM    9  C   UNL     1     -46.485 -52.084  12.331  1.00  0.00     0.105 C 
HETATM   10  N   UNL     1     -47.235 -51.768  11.507  1.00  0.00    -0.191 NA
HETATM   11  C   UNL     1     -45.860 -52.092  14.670  1.00  0.00    -0.012 A 
HETATM   12  C   UNL     1     -47.059 -51.329  15.156  1.00  0.00     0.052 C 
ENDROOT
BRANCH   5  13
HETATM   13  C   UNL     1     -42.274 -54.209  13.796  1.00  0.00     0.255 C 
BRANCH  13  14
HETATM   14  C   UNL     1     -41.189 -53.289  13.244  1.00  0.00     0.238 C 
HETATM   15  O   UNL     1     -40.517 -53.626  12.269  1.00  0.00    -0.272 OA
HETATM   16  N   UNL     1     -40.946 -52.131  13.964  1.00  0.00    -0.350 N 
HETATM   17  H   UNL     1     -41.503 -51.969  14.798  1.00  0.00     0.163 HD
BRANCH  16  18
HETATM   18  C   UNL     1     -39.943 -51.122  13.578  1.00  0.00     0.034 C 
HETATM   19  C   UNL     1     -38.512 -51.705  13.700  1.00  0.00     0.035 C 
HETATM   20  C   UNL     1     -37.460 -50.669  13.272  1.00  0.00    -0.012 C 
HETATM   21  C   UNL     1     -37.587 -49.420  14.161  1.00  0.00     0.009 C 
HETATM   22  C   UNL     1     -37.704 -50.280  11.806  1.00  0.00     0.009 C 
HETATM   23  C   UNL     1     -38.987 -48.803  14.009  1.00  0.00    -0.012 C 
HETATM   24  C   UNL     1     -39.213 -48.420  12.539  1.00  0.00     0.009 C 
HETATM   25  C   UNL     1     -40.048 -49.834  14.437  1.00  0.00     0.035 C 
HETATM   26  C   UNL     1     -39.107 -49.672  11.653  1.00  0.00    -0.012 C 
HETATM   27  C   UNL     1     -40.163 -50.703  12.096  1.00  0.00     0.035 C 
ENDBRANCH  16  18
ENDBRANCH  13  14
ENDBRANCH   5  13
TORSDOF 3
ENDMDL
MODEL 7
REMARK VINA RESULT:      -7.0      1.798      2.672
REMARK  3 active torsions:
REMARK  status: ('A' for Active; 'I' for Inactive)
REMARK    1  A    between atoms: N_5  and  C_6 
REMARK    2  A    between atoms: C_6  and  C_7 
REMARK       I    between atoms: C_7  and  N_9 
REMARK    3  A    between atoms: N_9  and  C_10 
ROOT
HETATM    1  C   UNL     1     -44.330 -52.701  12.782  1.00  0.00     0.070 C 
HETATM    2  C   UNL     1     -42.824 -52.540  12.771  1.00  0.00     0.029 A 
HETATM    3  N   UNL     1     -42.349 -51.549  12.087  1.00  0.00    -0.299 N 
ATOM      4  HN  UNL     1     -42.972 -50.923  11.577  1.00  0.00     0.187 HD
HETATM    5  N   UNL     1     -40.993 -51.358  12.061  1.00  0.00    -0.247 N 
HETATM    6  C   UNL     1     -40.092 -52.152  12.747  1.00  0.00     0.283 A 
HETATM    7  O   UNL     1     -38.885 -51.915  12.773  1.00  0.00    -0.265 OA
HETATM    8  C   UNL     1     -40.664 -53.307  13.484  1.00  0.00     0.121 A 
HETATM    9  C   UNL     1     -39.742 -54.166  14.146  1.00  0.00     0.105 C 
HETATM   10  N   UNL     1     -39.040 -54.899  14.704  1.00  0.00    -0.191 NA
HETATM   11  C   UNL     1     -41.992 -53.517  13.529  1.00  0.00    -0.012 A 
HETATM   12  C   UNL     1     -42.684 -54.627  14.265  1.00  0.00     0.052 C 
ENDROOT
BRANCH   5  13
HETATM   13  C   UNL     1     -40.514 -50.247  11.240  1.00  0.00     0.255 C 
BRANCH  13  14
HETATM   14  C   UNL     1     -40.715 -48.887  11.902  1.00  0.00     0.238 C 
HETATM   15  O   UNL     1     -41.199 -48.805  13.031  1.00  0.00    -0.272 OA
HETATM   16  N   UNL     1     -40.426 -47.780  11.122  1.00  0.00    -0.350 N 
HETATM   17  H   UNL     1     -40.098 -47.944  10.174  1.00  0.00     0.163 HD
BRANCH  16  18
HETATM   18  C   UNL     1     -40.553 -46.390  11.594  1.00  0.00     0.034 C 
HETATM   19  C   UNL     1     -40.003 -45.403  10.533  1.00  0.00     0.035 C 
HETATM   20  C   UNL     1     -40.157 -43.949  11.004  1.00  0.00    -0.012 C 
HETATM   21  C   UNL     1     -39.396 -43.761  12.328  1.00  0.00     0.009 C 
HETATM   22  C   UNL     1     -41.646 -43.646  11.222  1.00  0.00     0.009 C 
HETATM   23  C   UNL     1     -39.969 -44.699  13.404  1.00  0.00    -0.012 C 
HETATM   24  C   UNL     1     -41.457 -44.382  13.610  1.00  0.00     0.009 C 
HETATM   25  C   UNL     1     -39.817 -46.159  12.941  1.00  0.00     0.035 C 
HETATM   26  C   UNL     1     -42.220 -44.590  12.291  1.00  0.00    -0.012 C 
HETATM   27  C   UNL     1     -42.053 -46.050  11.828  1.00  0.00     0.035 C 
ENDBRANCH  16  18
ENDBRANCH  13  14
ENDBRANCH   5  13
TORSDOF 3
ENDMDL
MODEL 8
REMARK VINA RESULT:      -6.6      1.759      2.619
REMARK  3 active torsions:
REMARK  status: ('A' for Active; 'I' for Inactive)
REMARK    1  A    between atoms: N_5  and  C_6 
REMARK    2  A    between atoms: C_6  and  C_7 
REMARK       I    between atoms: C_7  and  N_9 
REMARK    3  A    between atoms: N_9  and  C_10 
ROOT
HETATM    1  C   UNL     1     -44.078 -54.555  15.096  1.00  0.00     0.070 C 
HETATM    2  C   UNL     1     -42.655 -54.336  14.627  1.00  0.00     0.029 A 
HETATM    3  N   UNL     1     -42.494 -53.588  13.582  1.00  0.00    -0.299 N 
ATOM      4  HN  UNL     1     -43.298 -53.182  13.104  1.00  0.00     0.187 HD
HETATM    5  N   UNL     1     -41.223 -53.353  13.131  1.00  0.00    -0.247 N 
HETATM    6  C   UNL     1     -40.086 -53.850  13.743  1.00  0.00     0.283 A 
HETATM    7  O   UNL     1     -38.951 -53.562  13.367  1.00  0.00    -0.265 OA
HETATM    8  C   UNL     1     -40.305 -54.743  14.910  1.00  0.00     0.121 A 
HETATM    9  C   UNL     1     -39.147 -55.309  15.513  1.00  0.00     0.105 C 
HETATM   10  N   UNL     1     -38.241 -55.798  16.043  1.00  0.00    -0.191 NA
HETATM   11  C   UNL     1     -41.543 -54.988  15.376  1.00  0.00    -0.012 A 
HETATM   12  C   UNL     1     -41.885 -55.843  16.562  1.00  0.00     0.052 C 
ENDROOT
BRANCH   5  13
HETATM   13  C   UNL     1     -41.107 -52.534  11.926  1.00  0.00     0.255 C 
BRANCH  13  14
HETATM   14  C   UNL     1     -41.566 -51.094  12.138  1.00  0.00     0.238 C 
HETATM   15  O   UNL     1     -42.676 -50.854  12.614  1.00  0.00    -0.272 OA
HETATM   16  N   UNL     1     -40.716 -50.107  11.668  1.00  0.00    -0.350 N 
HETATM   17  H   UNL     1     -39.851 -50.402  11.225  1.00  0.00     0.163 HD
BRANCH  16  18
HETATM   18  C   UNL     1     -40.990 -48.664  11.791  1.00  0.00     0.034 C 
HETATM   19  C   UNL     1     -41.341 -48.301  13.257  1.00  0.00     0.035 C 
HETATM   20  C   UNL     1     -41.599 -46.793  13.401  1.00  0.00    -0.012 C 
HETATM   21  C   UNL     1     -42.759 -46.387  12.476  1.00  0.00     0.009 C 
HETATM   22  C   UNL     1     -40.332 -46.024  13.000  1.00  0.00     0.009 C 
HETATM   23  C   UNL     1     -42.401 -46.695  11.013  1.00  0.00    -0.012 C 
HETATM   24  C   UNL     1     -41.133 -45.918  10.629  1.00  0.00     0.009 C 
HETATM   25  C   UNL     1     -42.141 -48.205  10.858  1.00  0.00     0.035 C 
HETATM   26  C   UNL     1     -39.969 -46.340  11.540  1.00  0.00    -0.012 C 
HETATM   27  C   UNL     1     -39.724 -47.854  11.390  1.00  0.00     0.035 C 
ENDBRANCH  16  18
ENDBRANCH  13  14
ENDBRANCH   5  13
TORSDOF 3
ENDMDL
MODEL 9
REMARK VINA RESULT:      -6.5      4.068      7.198
REMARK  3 active torsions:
REMARK  status: ('A' for Active; 'I' for Inactive)
REMARK    1  A    between atoms: N_5  and  C_6 
REMARK    2  A    between atoms: C_6  and  C_7 
REMARK       I    between atoms: C_7  and  N_9 
REMARK    3  A    between atoms: N_9  and  C_10 
ROOT
HETATM    1  C   UNL     1     -38.778 -53.063  17.737  1.00  0.00     0.070 C 
HETATM    2  C   UNL     1     -38.365 -52.029  16.711  1.00  0.00     0.029 A 
HETATM    3  N   UNL     1     -39.022 -52.019  15.596  1.00  0.00    -0.299 N 
ATOM      4  HN  UNL     1     -39.772 -52.690  15.428  1.00  0.00     0.187 HD
HETATM    5  N   UNL     1     -38.690 -51.092  14.645  1.00  0.00    -0.247 N 
HETATM    6  C   UNL     1     -37.702 -50.139  14.813  1.00  0.00     0.283 A 
HETATM    7  O   UNL     1     -37.474 -49.266  13.977  1.00  0.00    -0.265 OA
HETATM    8  C   UNL     1     -36.935 -50.205  16.083  1.00  0.00     0.121 A 
HETATM    9  C   UNL     1     -35.877 -49.268  16.244  1.00  0.00     0.105 C 
HETATM   10  N   UNL     1     -35.004 -48.529  16.430  1.00  0.00    -0.191 NA
HETATM   11  C   UNL     1     -37.242 -51.104  17.035  1.00  0.00    -0.012 A 
HETATM   12  C   UNL     1     -36.562 -51.244  18.366  1.00  0.00     0.052 C 
ENDROOT
BRANCH   5  13
HETATM   13  C   UNL     1     -39.441 -51.155  13.392  1.00  0.00     0.255 C 
BRANCH  13  14
HETATM   14  C   UNL     1     -40.724 -51.974  13.507  1.00  0.00     0.238 C 
HETATM   15  O   UNL     1     -40.684 -53.204  13.509  1.00  0.00    -0.272 OA
HETATM   16  N   UNL     1     -41.908 -51.256  13.496  1.00  0.00    -0.350 N 
HETATM   17  H   UNL     1     -41.846 -50.245  13.420  1.00  0.00     0.163 HD
BRANCH  16  18
HETATM   18  C   UNL     1     -43.241 -51.875  13.605  1.00  0.00     0.034 C 
HETATM   19  C   UNL     1     -43.434 -52.505  15.008  1.00  0.00     0.035 C 
HETATM   20  C   UNL     1     -44.832 -53.127  15.142  1.00  0.00    -0.012 C 
HETATM   21  C   UNL     1     -45.013 -54.207  14.061  1.00  0.00     0.009 C 
HETATM   22  C   UNL     1     -45.892 -52.032  14.952  1.00  0.00     0.009 C 
HETATM   23  C   UNL     1     -44.875 -53.583  12.663  1.00  0.00    -0.012 C 
HETATM   24  C   UNL     1     -45.941 -52.491  12.490  1.00  0.00     0.009 C 
HETATM   25  C   UNL     1     -43.475 -52.958  12.519  1.00  0.00     0.035 C 
HETATM   26  C   UNL     1     -45.747 -51.402  13.557  1.00  0.00    -0.012 C 
HETATM   27  C   UNL     1     -44.340 -50.790  13.415  1.00  0.00     0.035 C 
ENDBRANCH  16  18
ENDBRANCH  13  14
ENDBRANCH   5  13
TORSDOF 3
ENDMDL
