MODEL 1
REMARK VINA RESULT:      -5.7      0.000      0.000
REMARK  6 active torsions:
REMARK  status: ('A' for Active; 'I' for Inactive)
REMARK    1  A    between atoms: C_2  and  N_3 
REMARK    2  A    between atoms: C_5  and  C_6 
REMARK    3  A    between atoms: C_6  and  N_7 
REMARK    4  A    between atoms: N_12  and  C_13 
REMARK    5  A    between atoms: C_13  and  C_14 
REMARK       I    between atoms: C_14  and  N_16 
REMARK    6  A    between atoms: N_16  and  C_17 
ROOT
HETATM    1  N   UNL     1     -46.308 -52.470  15.935  1.00  0.00    -0.308 N 
HETATM    2  C   UNL     1     -46.735 -51.896  14.754  1.00  0.00     0.122 C 
HETATM    3  C   UNL     1     -46.309 -52.341  13.573  1.00  0.00     0.110 C 
HETATM    4  C   UNL     1     -45.396 -53.515  13.550  1.00  0.00     0.273 C 
HETATM    5  O   UNL     1     -45.225 -54.138  12.505  1.00  0.00    -0.266 OA
HETATM    6  N   UNL     1     -44.825 -53.881  14.753  1.00  0.00    -0.256 N 
HETATM    7  C   UNL     1     -45.293 -53.442  15.987  1.00  0.00     0.331 C 
HETATM    8  O   UNL     1     -44.891 -53.916  17.046  1.00  0.00    -0.246 OA
ENDROOT
BRANCH   6   9
HETATM    9  C   UNL     1     -43.841 -54.962  14.747  1.00  0.00     0.239 C 
BRANCH   9  10
HETATM   10  C   UNL     1     -42.395 -54.465  14.589  1.00  0.00     0.236 C 
HETATM   11  O   UNL     1     -41.520 -54.646  15.432  1.00  0.00    -0.272 OA
HETATM   12  N   UNL     1     -42.188 -53.799  13.387  1.00  0.00    -0.355 N 
HETATM   13  H   UNL     1     -42.956 -53.713  12.733  1.00  0.00     0.162 HD
BRANCH  12  14
HETATM   14  C   UNL     1     -40.893 -53.387  12.936  1.00  0.00     0.084 A 
HETATM   15  C   UNL     1     -40.234 -52.139  13.453  1.00  0.00     0.027 A 
HETATM   16  C   UNL     1     -40.754 -52.175  12.045  1.00  0.00     0.027 A 
ENDBRANCH  12  14
ENDBRANCH   9  10
ENDBRANCH   6   9
BRANCH   3  17
HETATM   17  C   UNL     1     -46.754 -51.816  12.218  1.00  0.00    -0.030 C 
BRANCH  17  18
HETATM   18  N   UNL     1     -47.122 -51.380  11.094  1.00  0.00    -0.365 N 
ATOM     19  HN2 UNL     1     -46.822 -51.785  11.980  1.00  0.00     0.165 HD
ATOM     20  HN1 UNL     1     -47.419 -51.025  10.185  1.00  0.00     0.165 HD
ENDBRANCH  17  18
ENDBRANCH   3  17
BRANCH   1  21
HETATM   21  C   UNL     1     -46.934 -52.060  17.194  1.00  0.00     0.128 C 
HETATM   22  C   UNL     1     -48.055 -51.054  16.993  1.00  0.00     0.027 C 
ENDBRANCH   1  21
TORSDOF 6
ENDMDL
MODEL 2
REMARK VINA RESULT:      -5.6      7.621      9.592
REMARK  6 active torsions:
REMARK  status: ('A' for Active; 'I' for Inactive)
REMARK    1  A    between atoms: C_2  and  N_3 
REMARK    2  A    between atoms: C_5  and  C_6 
REMARK    3  A    between atoms: C_6  and  N_7 
REMARK    4  A    between atoms: N_12  and  C_13 
REMARK    5  A    between atoms: C_13  and  C_14 
REMARK       I    between atoms: C_14  and  N_16 
REMARK    6  A    between atoms: N_16  and  C_17 
ROOT
HETATM    1  N   UNL     1     -41.139 -43.964  12.146  1.00  0.00    -0.308 N 
HETATM    2  C   UNL     1     -41.864 -44.065  13.317  1.00  0.00     0.122 C 
HETATM    3  C   UNL     1     -42.626 -45.128  13.572  1.00  0.00     0.110 C 
HETATM    4  C   UNL     1     -42.638 -46.238  12.583  1.00  0.00     0.273 C 
HETATM    5  O   UNL     1     -43.070 -47.343  12.906  1.00  0.00    -0.266 OA
HETATM    6  N   UNL     1     -42.094 -45.971  11.342  1.00  0.00    -0.256 N 
HETATM    7  C   UNL     1     -41.271 -44.879  11.087  1.00  0.00     0.331 C 
HETATM    8  O   UNL     1     -40.654 -44.757  10.032  1.00  0.00    -0.246 OA
ENDROOT
BRANCH   6   9
HETATM    9  C   UNL     1     -42.187 -47.005  10.313  1.00  0.00     0.239 C 
BRANCH   9  10
HETATM   10  C   UNL     1     -43.353 -46.784   9.336  1.00  0.00     0.236 C 
HETATM   11  O   UNL     1     -43.337 -45.943   8.441  1.00  0.00    -0.272 OA
HETATM   12  N   UNL     1     -44.417 -47.647   9.572  1.00  0.00    -0.355 N 
HETATM   13  H   UNL     1     -44.342 -48.329  10.315  1.00  0.00     0.162 HD
BRANCH  12  14
HETATM   14  C   UNL     1     -45.548 -47.748   8.699  1.00  0.00     0.084 A 
HETATM   15  C   UNL     1     -46.896 -47.202   9.081  1.00  0.00     0.027 A 
HETATM   16  C   UNL     1     -46.682 -48.687   9.038  1.00  0.00     0.027 A 
ENDBRANCH  12  14
ENDBRANCH   9  10
ENDBRANCH   6   9
BRANCH   3  17
HETATM   17  C   UNL     1     -43.419 -45.361  14.846  1.00  0.00    -0.030 C 
BRANCH  17  18
HETATM   18  N   UNL     1     -44.076 -45.555  15.905  1.00  0.00    -0.365 N 
ATOM     19  HN2 UNL     1     -43.589 -45.419  15.019  1.00  0.00     0.165 HD
ATOM     20  HN1 UNL     1     -44.607 -45.711  16.762  1.00  0.00     0.165 HD
ENDBRANCH  17  18
ENDBRANCH   3  17
BRANCH   1  21
HETATM   21  C   UNL     1     -40.188 -42.862  11.990  1.00  0.00     0.128 C 
HETATM   22  C   UNL     1     -40.800 -41.507  12.304  1.00  0.00     0.027 C 
ENDBRANCH   1  21
TORSDOF 6
ENDMDL
MODEL 3
REMARK VINA RESULT:      -5.6      2.868      4.616
REMARK  6 active torsions:
REMARK  status: ('A' for Active; 'I' for Inactive)
REMARK    1  A    between atoms: C_2  and  N_3 
REMARK    2  A    between atoms: C_5  and  C_6 
REMARK    3  A    between atoms: C_6  and  N_7 
REMARK    4  A    between atoms: N_12  and  C_13 
REMARK    5  A    between atoms: C_13  and  C_14 
REMARK       I    between atoms: C_14  and  N_16 
REMARK    6  A    between atoms: N_16  and  C_17 
ROOT
HETATM    1  N   UNL     1     -41.795 -54.689  14.978  1.00  0.00    -0.308 N 
HETATM    2  C   UNL     1     -43.147 -54.896  15.170  1.00  0.00     0.122 C 
HETATM    3  C   UNL     1     -44.045 -54.479  14.278  1.00  0.00     0.110 C 
HETATM    4  C   UNL     1     -43.554 -53.829  13.035  1.00  0.00     0.273 C 
HETATM    5  O   UNL     1     -44.304 -53.708  12.069  1.00  0.00    -0.266 OA
HETATM    6  N   UNL     1     -42.229 -53.441  13.019  1.00  0.00    -0.256 N 
HETATM    7  C   UNL     1     -41.285 -53.903  13.930  1.00  0.00     0.331 C 
HETATM    8  O   UNL     1     -40.083 -53.691  13.792  1.00  0.00    -0.246 OA
ENDROOT
BRANCH   6   9
HETATM    9  C   UNL     1     -41.742 -52.703  11.855  1.00  0.00     0.239 C 
BRANCH   9  10
HETATM   10  C   UNL     1     -41.141 -51.334  12.212  1.00  0.00     0.236 C 
HETATM   11  O   UNL     1     -41.778 -50.436  12.757  1.00  0.00    -0.272 OA
HETATM   12  N   UNL     1     -39.800 -51.231  11.860  1.00  0.00    -0.355 N 
HETATM   13  H   UNL     1     -39.341 -52.027  11.435  1.00  0.00     0.162 HD
BRANCH  12  14
HETATM   14  C   UNL     1     -38.978 -50.120  12.233  1.00  0.00     0.084 A 
HETATM   15  C   UNL     1     -37.730 -49.766  11.474  1.00  0.00     0.027 A 
HETATM   16  C   UNL     1     -37.619 -50.358  12.848  1.00  0.00     0.027 A 
ENDBRANCH  12  14
ENDBRANCH   9  10
ENDBRANCH   6   9
BRANCH   3  17
HETATM   17  C   UNL     1     -45.546 -54.699  14.368  1.00  0.00    -0.030 C 
BRANCH  17  18
HETATM   18  N   UNL     1     -46.791 -54.881  14.442  1.00  0.00    -0.365 N 
ATOM     19  HN2 UNL     1     -45.783 -54.730  14.439  1.00  0.00     0.165 HD
ATOM     20  HN1 UNL     1     -47.799 -55.029  14.500  1.00  0.00     0.165 HD
ENDBRANCH  17  18
ENDBRANCH   3  17
BRANCH   1  21
HETATM   21  C   UNL     1     -40.841 -55.314  15.897  1.00  0.00     0.128 C 
HETATM   22  C   UNL     1     -41.493 -56.326  16.824  1.00  0.00     0.027 C 
ENDBRANCH   1  21
TORSDOF 6
ENDMDL
MODEL 4
REMARK VINA RESULT:      -5.4      2.955      4.921
REMARK  6 active torsions:
REMARK  status: ('A' for Active; 'I' for Inactive)
REMARK    1  A    between atoms: C_2  and  N_3 
REMARK    2  A    between atoms: C_5  and  C_6 
REMARK    3  A    between atoms: C_6  and  N_7 
REMARK    4  A    between atoms: N_12  and  C_13 
REMARK    5  A    between atoms: C_13  and  C_14 
REMARK       I    between atoms: C_14  and  N_16 
REMARK    6  A    between atoms: N_16  and  C_17 
ROOT
HETATM    1  N   UNL     1     -41.562 -54.647  15.065  1.00  0.00    -0.308 N 
HETATM    2  C   UNL     1     -42.909 -54.941  15.151  1.00  0.00     0.122 C 
HETATM    3  C   UNL     1     -43.779 -54.471  14.259  1.00  0.00     0.110 C 
HETATM    4  C   UNL     1     -43.259 -53.661  13.126  1.00  0.00     0.273 C 
HETATM    5  O   UNL     1     -43.961 -53.470  12.135  1.00  0.00    -0.266 OA
HETATM    6  N   UNL     1     -41.958 -53.209  13.232  1.00  0.00    -0.256 N 
HETATM    7  C   UNL     1     -41.041 -53.724  14.142  1.00  0.00     0.331 C 
HETATM    8  O   UNL     1     -39.847 -53.438  14.101  1.00  0.00    -0.246 OA
ENDROOT
BRANCH   6   9
HETATM    9  C   UNL     1     -41.451 -52.321  12.187  1.00  0.00     0.239 C 
BRANCH   9  10
HETATM   10  C   UNL     1     -41.724 -50.835  12.469  1.00  0.00     0.236 C 
HETATM   11  O   UNL     1     -41.912 -50.382  13.595  1.00  0.00    -0.272 OA
HETATM   12  N   UNL     1     -41.725 -50.064  11.312  1.00  0.00    -0.355 N 
HETATM   13  H   UNL     1     -41.538 -50.510  10.423  1.00  0.00     0.162 HD
BRANCH  12  14
HETATM   14  C   UNL     1     -41.795 -48.634  11.327  1.00  0.00     0.084 A 
HETATM   15  C   UNL     1     -43.108 -47.904  11.369  1.00  0.00     0.027 A 
HETATM   16  C   UNL     1     -42.291 -47.888  10.110  1.00  0.00     0.027 A 
ENDBRANCH  12  14
ENDBRANCH   9  10
ENDBRANCH   6   9
BRANCH   3  17
HETATM   17  C   UNL     1     -45.268 -54.775  14.233  1.00  0.00    -0.030 C 
BRANCH  17  18
HETATM   18  N   UNL     1     -46.503 -55.028  14.211  1.00  0.00    -0.365 N 
ATOM     19  HN2 UNL     1     -45.495 -54.876  14.210  1.00  0.00     0.165 HD
ATOM     20  HN1 UNL     1     -47.503 -55.231  14.194  1.00  0.00     0.165 HD
ENDBRANCH  17  18
ENDBRANCH   3  17
BRANCH   1  21
HETATM   21  C   UNL     1     -40.626 -55.324  15.966  1.00  0.00     0.128 C 
HETATM   22  C   UNL     1     -41.302 -56.362  16.845  1.00  0.00     0.027 C 
ENDBRANCH   1  21
TORSDOF 6
ENDMDL
MODEL 5
REMARK VINA RESULT:      -5.3      3.662      5.918
REMARK  6 active torsions:
REMARK  status: ('A' for Active; 'I' for Inactive)
REMARK    1  A    between atoms: C_2  and  N_3 
REMARK    2  A    between atoms: C_5  and  C_6 
REMARK    3  A    between atoms: C_6  and  N_7 
REMARK    4  A    between atoms: N_12  and  C_13 
REMARK    5  A    between atoms: C_13  and  C_14 
REMARK       I    between atoms: C_14  and  N_16 
REMARK    6  A    between atoms: N_16  and  C_17 
ROOT
HETATM    1  N   UNL     1     -43.628 -53.125  13.155  1.00  0.00    -0.308 N 
HETATM    2  C   UNL     1     -42.521 -53.947  13.239  1.00  0.00     0.122 C 
HETATM    3  C   UNL     1     -41.297 -53.447  13.398  1.00  0.00     0.110 C 
HETATM    4  C   UNL     1     -41.150 -51.975  13.538  1.00  0.00     0.273 C 
HETATM    5  O   UNL     1     -40.106 -51.502  13.983  1.00  0.00    -0.266 OA
HETATM    6  N   UNL     1     -42.248 -51.207  13.205  1.00  0.00    -0.256 N 
HETATM    7  C   UNL     1     -43.533 -51.725  13.073  1.00  0.00     0.331 C 
HETATM    8  O   UNL     1     -44.520 -51.005  12.956  1.00  0.00    -0.246 OA
ENDROOT
BRANCH   6   9
HETATM    9  C   UNL     1     -42.104 -49.752  13.229  1.00  0.00     0.239 C 
BRANCH   9  10
HETATM   10  C   UNL     1     -41.904 -49.141  11.833  1.00  0.00     0.236 C 
HETATM   11  O   UNL     1     -40.886 -49.299  11.163  1.00  0.00    -0.272 OA
HETATM   12  N   UNL     1     -43.003 -48.400  11.412  1.00  0.00    -0.355 N 
HETATM   13  H   UNL     1     -43.814 -48.338  12.015  1.00  0.00     0.162 HD
BRANCH  12  14
HETATM   14  C   UNL     1     -43.125 -47.868  10.089  1.00  0.00     0.084 A 
HETATM   15  C   UNL     1     -43.320 -46.399   9.839  1.00  0.00     0.027 A 
HETATM   16  C   UNL     1     -44.458 -47.348   9.604  1.00  0.00     0.027 A 
ENDBRANCH  12  14
ENDBRANCH   9  10
ENDBRANCH   6   9
BRANCH   3  17
HETATM   17  C   UNL     1     -40.024 -54.262  13.553  1.00  0.00    -0.030 C 
BRANCH  17  18
HETATM   18  N   UNL     1     -38.967 -54.939  13.680  1.00  0.00    -0.365 N 
ATOM     19  HN2 UNL     1     -39.803 -54.358  13.619  1.00  0.00     0.165 HD
ATOM     20  HN1 UNL     1     -38.112 -55.486  13.782  1.00  0.00     0.165 HD
ENDBRANCH  17  18
ENDBRANCH   3  17
BRANCH   1  21
HETATM   21  C   UNL     1     -44.963 -53.726  13.153  1.00  0.00     0.128 C 
HETATM   22  C   UNL     1     -45.032 -55.010  13.961  1.00  0.00     0.027 C 
ENDBRANCH   1  21
TORSDOF 6
ENDMDL
MODEL 6
REMARK VINA RESULT:      -5.2      3.742      6.940
REMARK  6 active torsions:
REMARK  status: ('A' for Active; 'I' for Inactive)
REMARK    1  A    between atoms: C_2  and  N_3 
REMARK    2  A    between atoms: C_5  and  C_6 
REMARK    3  A    between atoms: C_6  and  N_7 
REMARK    4  A    between atoms: N_12  and  C_13 
REMARK    5  A    between atoms: C_13  and  C_14 
REMARK       I    between atoms: C_14  and  N_16 
REMARK    6  A    between atoms: N_16  and  C_17 
ROOT
HETATM    1  N   UNL     1     -38.501 -50.328  13.039  1.00  0.00    -0.308 N 
HETATM    2  C   UNL     1     -38.640 -49.101  12.421  1.00  0.00     0.122 C 
HETATM    3  C   UNL     1     -39.752 -48.779  11.761  1.00  0.00     0.110 C 
HETATM    4  C   UNL     1     -40.872 -49.757  11.749  1.00  0.00     0.273 C 
HETATM    5  O   UNL     1     -42.001 -49.393  11.427  1.00  0.00    -0.266 OA
HETATM    6  N   UNL     1     -40.581 -51.039  12.171  1.00  0.00    -0.256 N 
HETATM    7  C   UNL     1     -39.435 -51.367  12.889  1.00  0.00     0.331 C 
HETATM    8  O   UNL     1     -39.282 -52.469  13.409  1.00  0.00    -0.246 OA
ENDROOT
BRANCH   6   9
HETATM    9  C   UNL     1     -41.631 -52.052  12.071  1.00  0.00     0.239 C 
BRANCH   9  10
HETATM   10  C   UNL     1     -42.728 -51.895  13.136  1.00  0.00     0.236 C 
HETATM   11  O   UNL     1     -42.520 -51.996  14.343  1.00  0.00    -0.272 OA
HETATM   12  N   UNL     1     -43.973 -51.618  12.584  1.00  0.00    -0.355 N 
HETATM   13  H   UNL     1     -44.056 -51.527  11.579  1.00  0.00     0.162 HD
BRANCH  12  14
HETATM   14  C   UNL     1     -45.117 -51.270  13.371  1.00  0.00     0.084 A 
HETATM   15  C   UNL     1     -45.976 -52.315  14.026  1.00  0.00     0.027 A 
HETATM   16  C   UNL     1     -46.507 -51.550  12.850  1.00  0.00     0.027 A 
ENDBRANCH  12  14
ENDBRANCH   9  10
ENDBRANCH   6   9
BRANCH   3  17
HETATM   17  C   UNL     1     -40.027 -47.442  11.092  1.00  0.00    -0.030 C 
BRANCH  17  18
HETATM   18  N   UNL     1     -40.254 -46.334  10.536  1.00  0.00    -0.365 N 
ATOM     19  HN2 UNL     1     -40.112 -47.253  10.955  1.00  0.00     0.165 HD
ATOM     20  HN1 UNL     1     -40.437 -45.437  10.086  1.00  0.00     0.165 HD
ENDBRANCH  17  18
ENDBRANCH   3  17
BRANCH   1  21
HETATM   21  C   UNL     1     -37.335 -50.567  13.892  1.00  0.00     0.128 C 
HETATM   22  C   UNL     1     -37.240 -49.587  15.048  1.00  0.00     0.027 C 
ENDBRANCH   1  21
TORSDOF 6
ENDMDL
MODEL 7
REMARK VINA RESULT:      -5.1      2.626      3.978
REMARK  6 active torsions:
REMARK  status: ('A' for Active; 'I' for Inactive)
REMARK    1  A    between atoms: C_2  and  N_3 
REMARK    2  A    between atoms: C_5  and  C_6 
REMARK    3  A    between atoms: C_6  and  N_7 
REMARK    4  A    between atoms: N_12  and  C_13 
REMARK    5  A    between atoms: C_13  and  C_14 
REMARK       I    between atoms: C_14  and  N_16 
REMARK    6  A    between atoms: N_16  and  C_17 
ROOT
HETATM    1  N   UNL     1     -44.877 -52.877  13.803  1.00  0.00    -0.308 N 
HETATM    2  C   UNL     1     -43.972 -52.186  13.021  1.00  0.00     0.122 C 
HETATM    3  C   UNL     1     -42.706 -52.585  12.909  1.00  0.00     0.110 C 
HETATM    4  C   UNL     1     -42.296 -53.832  13.607  1.00  0.00     0.273 C 
HETATM    5  O   UNL     1     -41.249 -54.395  13.294  1.00  0.00    -0.266 OA
HETATM    6  N   UNL     1     -43.171 -54.330  14.553  1.00  0.00    -0.256 N 
HETATM    7  C   UNL     1     -44.502 -53.937  14.647  1.00  0.00     0.331 C 
HETATM    8  O   UNL     1     -45.306 -54.518  15.371  1.00  0.00    -0.246 OA
ENDROOT
BRANCH   6   9
HETATM    9  C   UNL     1     -42.751 -55.493  15.334  1.00  0.00     0.239 C 
BRANCH   9  10
HETATM   10  C   UNL     1     -41.732 -55.150  16.433  1.00  0.00     0.236 C 
HETATM   11  O   UNL     1     -42.024 -54.547  17.463  1.00  0.00    -0.272 OA
HETATM   12  N   UNL     1     -40.453 -55.605  16.135  1.00  0.00    -0.355 N 
HETATM   13  H   UNL     1     -40.300 -56.115  15.274  1.00  0.00     0.162 HD
BRANCH  12  14
HETATM   14  C   UNL     1     -39.369 -55.552  17.069  1.00  0.00     0.084 A 
HETATM   15  C   UNL     1     -37.949 -55.817  16.652  1.00  0.00     0.027 A 
HETATM   16  C   UNL     1     -38.675 -56.824  17.494  1.00  0.00     0.027 A 
ENDBRANCH  12  14
ENDBRANCH   9  10
ENDBRANCH   6   9
BRANCH   3  17
HETATM   17  C   UNL     1     -41.647 -51.930  12.038  1.00  0.00    -0.030 C 
BRANCH  17  18
HETATM   18  N   UNL     1     -40.768 -51.386  11.317  1.00  0.00    -0.365 N 
ATOM     19  HN2 UNL     1     -41.472 -51.784  11.938  1.00  0.00     0.165 HD
ATOM     20  HN1 UNL     1     -40.057 -50.947  10.732  1.00  0.00     0.165 HD
ENDBRANCH  17  18
ENDBRANCH   3  17
BRANCH   1  21
HETATM   21  C   UNL     1     -46.291 -52.500  13.759  1.00  0.00     0.128 C 
HETATM   22  C   UNL     1     -46.653 -51.721  12.505  1.00  0.00     0.027 C 
ENDBRANCH   1  21
TORSDOF 6
ENDMDL
MODEL 8
REMARK VINA RESULT:      -5.0      2.065      5.586
REMARK  6 active torsions:
REMARK  status: ('A' for Active; 'I' for Inactive)
REMARK    1  A    between atoms: C_2  and  N_3 
REMARK    2  A    between atoms: C_5  and  C_6 
REMARK    3  A    between atoms: C_6  and  N_7 
REMARK    4  A    between atoms: N_12  and  C_13 
REMARK    5  A    between atoms: C_13  and  C_14 
REMARK       I    between atoms: C_14  and  N_16 
REMARK    6  A    between atoms: N_16  and  C_17 
ROOT
HETATM    1  N   UNL     1     -39.800 -52.595  14.869  1.00  0.00    -0.308 N 
HETATM    2  C   UNL     1     -39.639 -51.759  13.781  1.00  0.00     0.122 C 
HETATM    3  C   UNL     1     -40.518 -51.746  12.780  1.00  0.00     0.110 C 
HETATM    4  C   UNL     1     -41.716 -52.621  12.884  1.00  0.00     0.273 C 
HETATM    5  O   UNL     1     -42.685 -52.424  12.154  1.00  0.00    -0.266 OA
HETATM    6  N   UNL     1     -41.691 -53.594  13.864  1.00  0.00    -0.256 N 
HETATM    7  C   UNL     1     -40.794 -53.587  14.927  1.00  0.00     0.331 C 
HETATM    8  O   UNL     1     -40.903 -54.353  15.880  1.00  0.00    -0.246 OA
ENDROOT
BRANCH   6   9
HETATM    9  C   UNL     1     -42.805 -54.539  13.924  1.00  0.00     0.239 C 
BRANCH   9  10
HETATM   10  C   UNL     1     -43.943 -54.078  14.849  1.00  0.00     0.236 C 
HETATM   11  O   UNL     1     -44.226 -54.636  15.905  1.00  0.00    -0.272 OA
HETATM   12  N   UNL     1     -44.605 -52.956  14.361  1.00  0.00    -0.355 N 
HETATM   13  H   UNL     1     -44.294 -52.540  13.493  1.00  0.00     0.162 HD
BRANCH  12  14
HETATM   14  C   UNL     1     -45.590 -52.243  15.116  1.00  0.00     0.084 A 
HETATM   15  C   UNL     1     -47.041 -52.637  15.099  1.00  0.00     0.027 A 
HETATM   16  C   UNL     1     -46.606 -51.379  14.406  1.00  0.00     0.027 A 
ENDBRANCH  12  14
ENDBRANCH   9  10
ENDBRANCH   6   9
BRANCH   3  17
HETATM   17  C   UNL     1     -40.463 -50.833  11.567  1.00  0.00    -0.030 C 
BRANCH  17  18
HETATM   18  N   UNL     1     -40.418 -50.074  10.561  1.00  0.00    -0.365 N 
ATOM     19  HN2 UNL     1     -40.430 -50.646  11.405  1.00  0.00     0.165 HD
ATOM     20  HN1 UNL     1     -40.382 -49.461   9.747  1.00  0.00     0.165 HD
ENDBRANCH  17  18
ENDBRANCH   3  17
BRANCH   1  21
HETATM   21  C   UNL     1     -38.904 -52.449  16.018  1.00  0.00     0.128 C 
HETATM   22  C   UNL     1     -38.183 -51.112  16.037  1.00  0.00     0.027 C 
ENDBRANCH   1  21
TORSDOF 6
ENDMDL
MODEL 9
REMARK VINA RESULT:      -5.0      8.349     10.065
REMARK  6 active torsions:
REMARK  status: ('A' for Active; 'I' for Inactive)
REMARK    1  A    between atoms: C_2  and  N_3 
REMARK    2  A    between atoms: C_5  and  C_6 
REMARK    3  A    between atoms: C_6  and  N_7 
REMARK    4  A    between atoms: N_12  and  C_13 
REMARK    5  A    between atoms: C_13  and  C_14 
REMARK       I    between atoms: C_14  and  N_16 
REMARK    6  A    between atoms: N_16  and  C_17 
ROOT
HETATM    1  N   UNL     1     -41.600 -47.584  10.887  1.00  0.00    -0.308 N 
HETATM    2  C   UNL     1     -42.760 -47.921  10.217  1.00  0.00     0.122 C 
HETATM    3  C   UNL     1     -43.570 -46.986   9.721  1.00  0.00     0.110 C 
HETATM    4  C   UNL     1     -43.169 -45.562   9.858  1.00  0.00     0.273 C 
HETATM    5  O   UNL     1     -43.712 -44.702   9.167  1.00  0.00    -0.266 OA
HETATM    6  N   UNL     1     -42.139 -45.288  10.737  1.00  0.00    -0.256 N 
HETATM    7  C   UNL     1     -41.273 -46.260  11.227  1.00  0.00     0.331 C 
HETATM    8  O   UNL     1     -40.260 -45.975  11.860  1.00  0.00    -0.246 OA
ENDROOT
BRANCH   6   9
HETATM    9  C   UNL     1     -41.792 -43.889  10.976  1.00  0.00     0.239 C 
BRANCH   9  10
HETATM   10  C   UNL     1     -42.768 -43.175  11.925  1.00  0.00     0.236 C 
HETATM   11  O   UNL     1     -43.055 -43.594  13.044  1.00  0.00    -0.272 OA
HETATM   12  N   UNL     1     -43.281 -42.003  11.381  1.00  0.00    -0.355 N 
HETATM   13  H   UNL     1     -42.976 -41.713  10.460  1.00  0.00     0.162 HD
BRANCH  12  14
HETATM   14  C   UNL     1     -44.080 -41.080  12.128  1.00  0.00     0.084 A 
HETATM   15  C   UNL     1     -45.197 -40.300  11.491  1.00  0.00     0.027 A 
HETATM   16  C   UNL     1     -43.936 -39.594  11.896  1.00  0.00     0.027 A 
ENDBRANCH  12  14
ENDBRANCH   9  10
ENDBRANCH   6   9
BRANCH   3  17
HETATM   17  C   UNL     1     -44.839 -47.249   8.927  1.00  0.00    -0.030 C 
BRANCH  17  18
HETATM   18  N   UNL     1     -45.891 -47.468   8.267  1.00  0.00    -0.365 N 
ATOM     19  HN2 UNL     1     -45.068 -47.250   8.829  1.00  0.00     0.165 HD
ATOM     20  HN1 UNL     1     -46.741 -47.646   7.733  1.00  0.00     0.165 HD
ENDBRANCH  17  18
ENDBRANCH   3  17
BRANCH   1  21
HETATM   21  C   UNL     1     -40.661 -48.644  11.261  1.00  0.00     0.128 C 
HETATM   22  C   UNL     1     -41.274 -49.670  12.199  1.00  0.00     0.027 C 
ENDBRANCH   1  21
TORSDOF 6
ENDMDL
