MODEL 1
REMARK VINA RESULT:      -5.9      0.000      0.000
REMARK  3 active torsions:
REMARK  status: ('A' for Active; 'I' for Inactive)
REMARK    1  A    between atoms: O_2  and  C_3 
REMARK    2  A    between atoms: C_7  and  N_8 
REMARK       I    between atoms: N_8  and  C_9 
REMARK       I    between atoms: C_9  and  N_11 
REMARK    3  A    between atoms: N_11  and  C_12 
ROOT
HETATM    1  N   UNL     1     -42.867 -44.927  11.132  1.00  0.00    -0.336 N 
HETATM    2  C   UNL     1     -43.612 -45.389  10.085  1.00  0.00     0.322 C 
HETATM    3  O   UNL     1     -43.977 -44.728   9.130  1.00  0.00    -0.247 OA
HETATM    4  N   UNL     1     -43.984 -46.759  10.247  1.00  0.00    -0.293 N 
HETATM    5  H   UNL     1     -42.497 -45.552  11.829  1.00  0.00     0.164 HD
HETATM    6  H   UNL     1     -43.639 -47.269  11.042  1.00  0.00     0.172 HD
ENDROOT
BRANCH   1   7
HETATM    7  C   UNL     1     -42.368 -43.547  11.092  1.00  0.00     0.115 C 
HETATM    8  C   UNL     1     -40.836 -43.413  10.937  1.00  0.00     0.143 C 
HETATM    9  C   UNL     1     -40.300 -43.612  12.354  1.00  0.00     0.034 C 
HETATM   10  C   UNL     1     -41.421 -43.170  13.292  1.00  0.00     0.005 C 
HETATM   11  C   UNL     1     -42.608 -42.806  12.404  1.00  0.00     0.028 C 
BRANCH   8  12
HETATM   12  O   UNL     1     -40.290 -44.326   9.994  1.00  0.00    -0.389 OA
HETATM   13  C   UNL     1     -39.626 -45.419  10.628  1.00  0.00     0.202 C 
ENDBRANCH   8  12
ENDBRANCH   1   7
BRANCH   4  14
HETATM   14  C   UNL     1     -44.798 -47.433   9.324  1.00  0.00     0.126 A 
HETATM   15  C   UNL     1     -46.134 -47.758   9.454  1.00  0.00     0.068 A 
HETATM   16  C   UNL     1     -46.493 -48.392   8.254  1.00  0.00     0.111 A 
HETATM   17  N   UNL     1     -45.462 -48.503   7.419  1.00  0.00    -0.308 N 
HETATM   18  N   UNL     1     -44.441 -47.932   8.089  1.00  0.00    -0.281 N 
ATOM     19  HN  UNL     1     -45.448 -48.923   6.489  1.00  0.00     0.186 HD
HETATM   20  C   UNL     1     -43.154 -47.882   7.440  1.00  0.00     0.179 C 
ENDBRANCH   4  14
TORSDOF 3
ENDMDL
MODEL 2
REMARK VINA RESULT:      -5.4      5.527      7.620
REMARK  3 active torsions:
REMARK  status: ('A' for Active; 'I' for Inactive)
REMARK    1  A    between atoms: O_2  and  C_3 
REMARK    2  A    between atoms: C_7  and  N_8 
REMARK       I    between atoms: N_8  and  C_9 
REMARK       I    between atoms: C_9  and  N_11 
REMARK    3  A    between atoms: N_11  and  C_12 
ROOT
HETATM    1  N   UNL     1     -43.209 -51.114  12.560  1.00  0.00    -0.336 N 
HETATM    2  C   UNL     1     -42.776 -49.819  12.510  1.00  0.00     0.322 C 
HETATM    3  O   UNL     1     -43.089 -48.938  13.289  1.00  0.00    -0.247 OA
HETATM    4  N   UNL     1     -41.930 -49.572  11.385  1.00  0.00    -0.293 N 
HETATM    5  H   UNL     1     -42.818 -51.820  11.959  1.00  0.00     0.164 HD
HETATM    6  H   UNL     1     -41.681 -50.338  10.783  1.00  0.00     0.172 HD
ENDROOT
BRANCH   1   7
HETATM    7  C   UNL     1     -44.051 -51.536  13.685  1.00  0.00     0.115 C 
HETATM    8  C   UNL     1     -43.999 -53.047  14.005  1.00  0.00     0.143 C 
HETATM    9  C   UNL     1     -44.956 -53.676  12.994  1.00  0.00     0.034 C 
HETATM   10  C   UNL     1     -45.975 -52.591  12.651  1.00  0.00     0.005 C 
HETATM   11  C   UNL     1     -45.537 -51.336  13.402  1.00  0.00     0.028 C 
BRANCH   8  12
HETATM   12  O   UNL     1     -42.683 -53.583  13.945  1.00  0.00    -0.389 OA
HETATM   13  C   UNL     1     -42.479 -54.614  14.910  1.00  0.00     0.202 C 
ENDBRANCH   8  12
ENDBRANCH   1   7
BRANCH   4  14
HETATM   14  C   UNL     1     -41.411 -48.300  11.098  1.00  0.00     0.126 A 
HETATM   15  C   UNL     1     -40.280 -47.710  11.625  1.00  0.00     0.068 A 
HETATM   16  C   UNL     1     -40.172 -46.459  10.996  1.00  0.00     0.111 A 
HETATM   17  N   UNL     1     -41.175 -46.236  10.150  1.00  0.00    -0.308 N 
HETATM   18  N   UNL     1     -41.925 -47.354  10.236  1.00  0.00    -0.281 N 
ATOM     19  HN  UNL     1     -41.339 -45.412   9.571  1.00  0.00     0.186 HD
HETATM   20  C   UNL     1     -43.109 -47.435   9.417  1.00  0.00     0.179 C 
ENDBRANCH   4  14
TORSDOF 3
ENDMDL
MODEL 3
REMARK VINA RESULT:      -5.2      7.187      9.323
REMARK  3 active torsions:
REMARK  status: ('A' for Active; 'I' for Inactive)
REMARK    1  A    between atoms: O_2  and  C_3 
REMARK    2  A    between atoms: C_7  and  N_8 
REMARK       I    between atoms: N_8  and  C_9 
REMARK       I    between atoms: C_9  and  N_11 
REMARK    3  A    between atoms: N_11  and  C_12 
ROOT
HETATM    1  N   UNL     1     -42.252 -52.829  13.701  1.00  0.00    -0.336 N 
HETATM    2  C   UNL     1     -41.202 -52.454  12.912  1.00  0.00     0.322 C 
HETATM    3  O   UNL     1     -40.608 -53.178  12.134  1.00  0.00    -0.247 OA
HETATM    4  N   UNL     1     -40.815 -51.097  13.131  1.00  0.00    -0.293 N 
HETATM    5  H   UNL     1     -42.776 -52.153  14.232  1.00  0.00     0.164 HD
HETATM    6  H   UNL     1     -41.351 -50.532  13.768  1.00  0.00     0.172 HD
ENDROOT
BRANCH   1   7
HETATM    7  C   UNL     1     -42.796 -54.184  13.559  1.00  0.00     0.115 C 
HETATM    8  C   UNL     1     -44.293 -54.249  13.181  1.00  0.00     0.143 C 
HETATM    9  C   UNL     1     -45.022 -54.047  14.509  1.00  0.00     0.034 C 
HETATM   10  C   UNL     1     -44.069 -54.553  15.590  1.00  0.00     0.005 C 
HETATM   11  C   UNL     1     -42.781 -54.955  14.876  1.00  0.00     0.028 C 
BRANCH   8  12
HETATM   12  O   UNL     1     -44.658 -53.298  12.189  1.00  0.00    -0.389 OA
HETATM   13  C   UNL     1     -45.820 -52.555  12.558  1.00  0.00     0.202 C 
ENDBRANCH   8  12
ENDBRANCH   1   7
BRANCH   4  14
HETATM   14  C   UNL     1     -39.724 -50.508  12.474  1.00  0.00     0.126 A 
HETATM   15  C   UNL     1     -38.382 -50.774  12.660  1.00  0.00     0.068 A 
HETATM   16  C   UNL     1     -37.698 -49.954  11.747  1.00  0.00     0.111 A 
HETATM   17  N   UNL     1     -38.529 -49.188  11.044  1.00  0.00    -0.308 N 
HETATM   18  N   UNL     1     -39.750 -49.524  11.508  1.00  0.00    -0.281 N 
ATOM     19  HN  UNL     1     -38.297 -48.506  10.322  1.00  0.00     0.186 HD
HETATM   20  C   UNL     1     -40.895 -48.864  10.932  1.00  0.00     0.179 C 
ENDBRANCH   4  14
TORSDOF 3
ENDMDL
MODEL 4
REMARK VINA RESULT:      -5.2      5.594      7.010
REMARK  3 active torsions:
REMARK  status: ('A' for Active; 'I' for Inactive)
REMARK    1  A    between atoms: O_2  and  C_3 
REMARK    2  A    between atoms: C_7  and  N_8 
REMARK       I    between atoms: N_8  and  C_9 
REMARK       I    between atoms: C_9  and  N_11 
REMARK    3  A    between atoms: N_11  and  C_12 
ROOT
HETATM    1  N   UNL     1     -41.545 -51.064  12.081  1.00  0.00    -0.336 N 
HETATM    2  C   UNL     1     -41.836 -49.732  12.005  1.00  0.00     0.322 C 
HETATM    3  O   UNL     1     -42.167 -49.026  12.940  1.00  0.00    -0.247 OA
HETATM    4  N   UNL     1     -41.766 -49.236  10.668  1.00  0.00    -0.293 N 
HETATM    5  H   UNL     1     -41.161 -51.562  11.295  1.00  0.00     0.164 HD
HETATM    6  H   UNL     1     -41.465 -49.852   9.932  1.00  0.00     0.172 HD
ENDROOT
BRANCH   1   7
HETATM    7  C   UNL     1     -41.531 -51.712  13.397  1.00  0.00     0.115 C 
HETATM    8  C   UNL     1     -40.422 -52.772  13.589  1.00  0.00     0.143 C 
HETATM    9  C   UNL     1     -40.988 -54.028  12.928  1.00  0.00     0.034 C 
HETATM   10  C   UNL     1     -42.507 -53.899  13.018  1.00  0.00     0.005 C 
HETATM   11  C   UNL     1     -42.789 -52.539  13.650  1.00  0.00     0.028 C 
BRANCH   8  12
HETATM   12  O   UNL     1     -39.169 -52.370  13.053  1.00  0.00    -0.389 OA
HETATM   13  C   UNL     1     -38.454 -51.513  13.943  1.00  0.00     0.202 C 
ENDBRANCH   8  12
ENDBRANCH   1   7
BRANCH   4  14
HETATM   14  C   UNL     1     -42.079 -47.908  10.339  1.00  0.00     0.126 A 
HETATM   15  C   UNL     1     -43.208 -47.440   9.697  1.00  0.00     0.068 A 
HETATM   16  C   UNL     1     -43.064 -46.045   9.635  1.00  0.00     0.111 A 
HETATM   17  N   UNL     1     -41.913 -45.638  10.164  1.00  0.00    -0.308 N 
HETATM   18  N   UNL     1     -41.321 -46.779  10.571  1.00  0.00    -0.281 N 
ATOM     19  HN  UNL     1     -41.559 -44.684  10.244  1.00  0.00     0.186 HD
HETATM   20  C   UNL     1     -40.032 -46.680  11.209  1.00  0.00     0.179 C 
ENDBRANCH   4  14
TORSDOF 3
ENDMDL
MODEL 5
REMARK VINA RESULT:      -5.0      5.483      7.576
REMARK  3 active torsions:
REMARK  status: ('A' for Active; 'I' for Inactive)
REMARK    1  A    between atoms: O_2  and  C_3 
REMARK    2  A    between atoms: C_7  and  N_8 
REMARK       I    between atoms: N_8  and  C_9 
REMARK       I    between atoms: C_9  and  N_11 
REMARK    3  A    between atoms: N_11  and  C_12 
ROOT
HETATM    1  N   UNL     1     -43.309 -50.864  12.523  1.00  0.00    -0.336 N 
HETATM    2  C   UNL     1     -42.812 -49.592  12.504  1.00  0.00     0.322 C 
HETATM    3  O   UNL     1     -43.033 -48.733  13.338  1.00  0.00    -0.247 OA
HETATM    4  N   UNL     1     -42.023 -49.334  11.341  1.00  0.00    -0.293 N 
HETATM    5  H   UNL     1     -42.991 -51.560  11.869  1.00  0.00     0.164 HD
HETATM    6  H   UNL     1     -41.850 -50.082  10.692  1.00  0.00     0.172 HD
ENDROOT
BRANCH   1   7
HETATM    7  C   UNL     1     -44.104 -51.296  13.678  1.00  0.00     0.115 C 
HETATM    8  C   UNL     1     -43.799 -52.725  14.180  1.00  0.00     0.143 C 
HETATM    9  C   UNL     1     -44.592 -53.629  13.239  1.00  0.00     0.034 C 
HETATM   10  C   UNL     1     -45.773 -52.792  12.751  1.00  0.00     0.005 C 
HETATM   11  C   UNL     1     -45.591 -51.400  13.350  1.00  0.00     0.028 C 
BRANCH   8  12
HETATM   12  O   UNL     1     -42.408 -53.021  14.206  1.00  0.00    -0.389 OA
HETATM   13  C   UNL     1     -42.087 -54.161  13.410  1.00  0.00     0.202 C 
ENDBRANCH   8  12
ENDBRANCH   1   7
BRANCH   4  14
HETATM   14  C   UNL     1     -41.456 -48.078  11.078  1.00  0.00     0.126 A 
HETATM   15  C   UNL     1     -42.012 -47.031  10.370  1.00  0.00     0.068 A 
HETATM   16  C   UNL     1     -41.069 -45.992  10.418  1.00  0.00     0.111 A 
HETATM   17  N   UNL     1     -39.969 -46.346  11.077  1.00  0.00    -0.308 N 
HETATM   18  N   UNL     1     -40.212 -47.617  11.456  1.00  0.00    -0.281 N 
ATOM     19  HN  UNL     1     -39.134 -45.786  11.255  1.00  0.00     0.186 HD
HETATM   20  C   UNL     1     -39.195 -48.301  12.215  1.00  0.00     0.179 C 
ENDBRANCH   4  14
TORSDOF 3
ENDMDL
MODEL 6
REMARK VINA RESULT:      -5.0      6.703      8.670
REMARK  3 active torsions:
REMARK  status: ('A' for Active; 'I' for Inactive)
REMARK    1  A    between atoms: O_2  and  C_3 
REMARK    2  A    between atoms: C_7  and  N_8 
REMARK       I    between atoms: N_8  and  C_9 
REMARK       I    between atoms: C_9  and  N_11 
REMARK    3  A    between atoms: N_11  and  C_12 
ROOT
HETATM    1  N   UNL     1     -43.961 -51.893  13.778  1.00  0.00    -0.336 N 
HETATM    2  C   UNL     1     -42.791 -51.197  13.667  1.00  0.00     0.322 C 
HETATM    3  O   UNL     1     -42.218 -50.628  14.578  1.00  0.00    -0.247 OA
HETATM    4  N   UNL     1     -42.311 -51.151  12.323  1.00  0.00    -0.293 N 
HETATM    5  H   UNL     1     -44.319 -52.441  13.013  1.00  0.00     0.164 HD
HETATM    6  H   UNL     1     -42.807 -51.657  11.608  1.00  0.00     0.172 HD
ENDROOT
BRANCH   1   7
HETATM    7  C   UNL     1     -44.559 -52.068  15.107  1.00  0.00     0.115 C 
HETATM    8  C   UNL     1     -45.351 -53.381  15.296  1.00  0.00     0.143 C 
HETATM    9  C   UNL     1     -46.714 -53.088  14.673  1.00  0.00     0.034 C 
HETATM   10  C   UNL     1     -46.913 -51.579  14.792  1.00  0.00     0.005 C 
HETATM   11  C   UNL     1     -45.629 -51.021  15.402  1.00  0.00     0.028 C 
BRANCH   8  12
HETATM   12  O   UNL     1     -44.701 -54.510  14.726  1.00  0.00    -0.389 OA
HETATM   13  C   UNL     1     -45.540 -55.201  13.801  1.00  0.00     0.202 C 
ENDBRANCH   8  12
ENDBRANCH   1   7
BRANCH   4  14
HETATM   14  C   UNL     1     -41.155 -50.445  11.959  1.00  0.00     0.126 A 
HETATM   15  C   UNL     1     -39.840 -50.821  12.147  1.00  0.00     0.068 A 
HETATM   16  C   UNL     1     -39.063 -49.796  11.583  1.00  0.00     0.111 A 
HETATM   17  N   UNL     1     -39.814 -48.810  11.096  1.00  0.00    -0.308 N 
HETATM   18  N   UNL     1     -41.077 -49.211  11.347  1.00  0.00    -0.281 N 
ATOM     19  HN  UNL     1     -39.506 -47.951  10.640  1.00  0.00     0.186 HD
HETATM   20  C   UNL     1     -42.154 -48.350  10.925  1.00  0.00     0.179 C 
ENDBRANCH   4  14
TORSDOF 3
ENDMDL
MODEL 7
REMARK VINA RESULT:      -4.8      5.912      6.623
REMARK  3 active torsions:
REMARK  status: ('A' for Active; 'I' for Inactive)
REMARK    1  A    between atoms: O_2  and  C_3 
REMARK    2  A    between atoms: C_7  and  N_8 
REMARK       I    between atoms: N_8  and  C_9 
REMARK       I    between atoms: C_9  and  N_11 
REMARK    3  A    between atoms: N_11  and  C_12 
ROOT
HETATM    1  N   UNL     1     -42.681 -49.921  12.168  1.00  0.00    -0.336 N 
HETATM    2  C   UNL     1     -43.346 -50.799  12.975  1.00  0.00     0.322 C 
HETATM    3  O   UNL     1     -43.769 -50.553  14.090  1.00  0.00    -0.247 OA
HETATM    4  N   UNL     1     -43.459 -52.097  12.390  1.00  0.00    -0.293 N 
HETATM    5  H   UNL     1     -42.465 -50.148  11.212  1.00  0.00     0.164 HD
HETATM    6  H   UNL     1     -43.114 -52.244  11.456  1.00  0.00     0.172 HD
ENDROOT
BRANCH   1   7
HETATM    7  C   UNL     1     -42.523 -48.531  12.611  1.00  0.00     0.115 C 
HETATM    8  C   UNL     1     -42.799 -47.466  11.525  1.00  0.00     0.143 C 
HETATM    9  C   UNL     1     -41.500 -47.405  10.724  1.00  0.00     0.034 C 
HETATM   10  C   UNL     1     -40.394 -47.827  11.688  1.00  0.00     0.005 C 
HETATM   11  C   UNL     1     -41.083 -48.206  12.997  1.00  0.00     0.028 C 
BRANCH   8  12
HETATM   12  O   UNL     1     -43.938 -47.766  10.729  1.00  0.00    -0.389 OA
HETATM   13  C   UNL     1     -43.725 -47.464   9.351  1.00  0.00     0.202 C 
ENDBRANCH   8  12
ENDBRANCH   1   7
BRANCH   4  14
HETATM   14  C   UNL     1     -44.054 -53.176  13.060  1.00  0.00     0.126 A 
HETATM   15  C   UNL     1     -45.391 -53.518  13.090  1.00  0.00     0.068 A 
HETATM   16  C   UNL     1     -45.471 -54.688  13.863  1.00  0.00     0.111 A 
HETATM   17  N   UNL     1     -44.281 -55.061  14.329  1.00  0.00    -0.308 N 
HETATM   18  N   UNL     1     -43.437 -54.126  13.847  1.00  0.00    -0.281 N 
ATOM     19  HN  UNL     1     -44.058 -55.866  14.915  1.00  0.00     0.186 HD
HETATM   20  C   UNL     1     -42.037 -54.250  14.172  1.00  0.00     0.179 C 
ENDBRANCH   4  14
TORSDOF 3
ENDMDL
MODEL 8
REMARK VINA RESULT:      -4.8      4.191      5.430
REMARK  3 active torsions:
REMARK  status: ('A' for Active; 'I' for Inactive)
REMARK    1  A    between atoms: O_2  and  C_3 
REMARK    2  A    between atoms: C_7  and  N_8 
REMARK       I    between atoms: N_8  and  C_9 
REMARK       I    between atoms: C_9  and  N_11 
REMARK    3  A    between atoms: N_11  and  C_12 
ROOT
HETATM    1  N   UNL     1     -40.230 -49.235  11.527  1.00  0.00    -0.336 N 
HETATM    2  C   UNL     1     -41.428 -48.612  11.323  1.00  0.00     0.322 C 
HETATM    3  O   UNL     1     -42.431 -48.769  11.995  1.00  0.00    -0.247 OA
HETATM    4  N   UNL     1     -41.411 -47.767  10.171  1.00  0.00    -0.293 N 
HETATM    5  H   UNL     1     -39.407 -48.972  11.011  1.00  0.00     0.164 HD
HETATM    6  H   UNL     1     -40.552 -47.652   9.661  1.00  0.00     0.172 HD
ENDROOT
BRANCH   1   7
HETATM    7  C   UNL     1     -40.075 -50.104  12.700  1.00  0.00     0.115 C 
HETATM    8  C   UNL     1     -39.445 -49.422  13.936  1.00  0.00     0.143 C 
HETATM    9  C   UNL     1     -37.944 -49.456  13.656  1.00  0.00     0.034 C 
HETATM   10  C   UNL     1     -37.715 -50.660  12.746  1.00  0.00     0.005 C 
HETATM   11  C   UNL     1     -39.093 -51.245  12.449  1.00  0.00     0.028 C 
BRANCH   8  12
HETATM   12  O   UNL     1     -39.946 -48.111  14.163  1.00  0.00    -0.389 OA
HETATM   13  C   UNL     1     -40.853 -48.066  15.264  1.00  0.00     0.202 C 
ENDBRANCH   8  12
ENDBRANCH   1   7
BRANCH   4  14
HETATM   14  C   UNL     1     -42.546 -47.069   9.732  1.00  0.00     0.126 A 
HETATM   15  C   UNL     1     -43.530 -47.511   8.871  1.00  0.00     0.068 A 
HETATM   16  C   UNL     1     -44.458 -46.460   8.776  1.00  0.00     0.111 A 
HETATM   17  N   UNL     1     -44.088 -45.402   9.493  1.00  0.00    -0.308 N 
HETATM   18  N   UNL     1     -42.921 -45.780  10.052  1.00  0.00    -0.281 N 
ATOM     19  HN  UNL     1     -44.574 -44.510   9.596  1.00  0.00     0.186 HD
HETATM   20  C   UNL     1     -42.250 -44.840  10.915  1.00  0.00     0.179 C 
ENDBRANCH   4  14
TORSDOF 3
ENDMDL
MODEL 9
REMARK VINA RESULT:      -4.7      5.772      7.544
REMARK  3 active torsions:
REMARK  status: ('A' for Active; 'I' for Inactive)
REMARK    1  A    between atoms: O_2  and  C_3 
REMARK    2  A    between atoms: C_7  and  N_8 
REMARK       I    between atoms: N_8  and  C_9 
REMARK       I    between atoms: C_9  and  N_11 
REMARK    3  A    between atoms: N_11  and  C_12 
ROOT
HETATM    1  N   UNL     1     -40.770 -50.719  13.045  1.00  0.00    -0.336 N 
HETATM    2  C   UNL     1     -40.529 -49.796  12.068  1.00  0.00     0.322 C 
HETATM    3  O   UNL     1     -39.923 -50.003  11.033  1.00  0.00    -0.247 OA
HETATM    4  N   UNL     1     -41.026 -48.501  12.409  1.00  0.00    -0.293 N 
HETATM    5  H   UNL     1     -41.380 -50.516  13.819  1.00  0.00     0.164 HD
HETATM    6  H   UNL     1     -41.541 -48.385  13.266  1.00  0.00     0.172 HD
ENDROOT
BRANCH   1   7
HETATM    7  C   UNL     1     -40.358 -52.110  12.822  1.00  0.00     0.115 C 
HETATM    8  C   UNL     1     -41.516 -53.133  12.784  1.00  0.00     0.143 C 
HETATM    9  C   UNL     1     -41.816 -53.411  14.256  1.00  0.00     0.034 C 
HETATM   10  C   UNL     1     -40.510 -53.155  15.005  1.00  0.00     0.005 C 
HETATM   11  C   UNL     1     -39.509 -52.653  13.968  1.00  0.00     0.028 C 
BRANCH   8  12
HETATM   12  O   UNL     1     -42.645 -52.668  12.057  1.00  0.00    -0.389 OA
HETATM   13  C   UNL     1     -43.863 -53.242  12.532  1.00  0.00     0.202 C 
ENDBRANCH   8  12
ENDBRANCH   1   7
BRANCH   4  14
HETATM   14  C   UNL     1     -40.845 -47.382  11.583  1.00  0.00     0.126 A 
HETATM   15  C   UNL     1     -39.899 -46.384  11.706  1.00  0.00     0.068 A 
HETATM   16  C   UNL     1     -40.111 -45.518  10.622  1.00  0.00     0.111 A 
HETATM   17  N   UNL     1     -41.139 -45.902   9.869  1.00  0.00    -0.308 N 
HETATM   18  N   UNL     1     -41.582 -47.022  10.474  1.00  0.00    -0.281 N 
ATOM     19  HN  UNL     1     -41.506 -45.453   9.029  1.00  0.00     0.186 HD
HETATM   20  C   UNL     1     -42.709 -47.704   9.887  1.00  0.00     0.179 C 
ENDBRANCH   4  14
TORSDOF 3
ENDMDL
