MODEL 1
REMARK VINA RESULT:      -5.9      0.000      0.000
REMARK  5 active torsions:
REMARK  status: ('A' for Active; 'I' for Inactive)
REMARK    1  A    between atoms: C_2  and  C_3 
REMARK    2  A    between atoms: C_3  and  C_4 
REMARK    3  A    between atoms: C_3  and  N_17 
REMARK    4  A    between atoms: C_4  and  N_5 
REMARK       I    between atoms: N_5  and  C_6 
REMARK       I    between atoms: C_6  and  N_8 
REMARK    5  A    between atoms: N_8  and  C_9 
ROOT
HETATM    1  N   UNL     1     -42.110 -51.014  12.892  1.00  0.00    -0.341 N 
HETATM    2  C   UNL     1     -42.508 -49.767  12.511  1.00  0.00     0.321 C 
HETATM    3  O   UNL     1     -43.262 -49.045  13.143  1.00  0.00    -0.247 OA
HETATM    4  N   UNL     1     -41.965 -49.384  11.255  1.00  0.00    -0.293 N 
HETATM    5  H   UNL     1     -41.338 -51.502  12.459  1.00  0.00     0.164 HD
HETATM    6  H   UNL     1     -41.427 -50.056  10.732  1.00  0.00     0.172 HD
ENDROOT
BRANCH   1   7
HETATM    7  C   UNL     1     -42.528 -51.487  14.202  1.00  0.00     0.160 C 
BRANCH   7   8
HETATM    8  C   UNL     1     -43.213 -52.879  14.185  1.00  0.00     0.240 C 
BRANCH   8   9
HETATM    9  C   UNL     1     -42.610 -53.766  13.060  1.00  0.00     0.033 C 
HETATM   10  C   UNL     1     -41.221 -54.315  13.369  1.00  0.00     0.007 C 
ENDBRANCH   8   9
BRANCH   8  11
HETATM   11  N   UNL     1     -44.690 -52.739  14.138  1.00  0.00     0.094 N 
HETATM   12  C   UNL     1     -45.245 -52.750  12.773  1.00  0.00     0.273 C 
HETATM   13  C   UNL     1     -46.358 -51.710  12.747  1.00  0.00     0.032 C 
HETATM   14  C   UNL     1     -46.596 -51.365  14.201  1.00  0.00     0.032 C 
HETATM   15  C   UNL     1     -45.233 -51.566  14.832  1.00  0.00     0.273 C 
ENDBRANCH   8  11
ENDBRANCH   7   8
ENDBRANCH   1   7
BRANCH   4  16
HETATM   16  C   UNL     1     -42.231 -48.134  10.685  1.00  0.00     0.127 A 
HETATM   17  C   UNL     1     -43.377 -47.723  10.040  1.00  0.00     0.076 A 
HETATM   18  C   UNL     1     -43.140 -46.393   9.630  1.00  0.00     0.025 A 
HETATM   19  C   UNL     1     -44.058 -45.499   8.883  1.00  0.00     0.070 C 
HETATM   20  N   UNL     1     -41.926 -45.979  10.007  1.00  0.00    -0.302 N 
HETATM   21  N   UNL     1     -41.400 -47.040  10.653  1.00  0.00    -0.281 N 
ATOM     22  HN  UNL     1     -41.495 -45.069   9.842  1.00  0.00     0.186 HD
HETATM   23  C   UNL     1     -40.060 -46.941  11.172  1.00  0.00     0.179 C 
ENDBRANCH   4  16
TORSDOF 5
ENDMDL
MODEL 2
REMARK VINA RESULT:      -5.9      1.844      6.772
REMARK  5 active torsions:
REMARK  status: ('A' for Active; 'I' for Inactive)
REMARK    1  A    between atoms: C_2  and  C_3 
REMARK    2  A    between atoms: C_3  and  C_4 
REMARK    3  A    between atoms: C_3  and  N_17 
REMARK    4  A    between atoms: C_4  and  N_5 
REMARK       I    between atoms: N_5  and  C_6 
REMARK       I    between atoms: C_6  and  N_8 
REMARK    5  A    between atoms: N_8  and  C_9 
ROOT
HETATM    1  N   UNL     1     -41.354 -49.616  11.344  1.00  0.00    -0.341 N 
HETATM    2  C   UNL     1     -42.017 -50.440  12.203  1.00  0.00     0.321 C 
HETATM    3  O   UNL     1     -42.567 -50.088  13.234  1.00  0.00    -0.247 OA
HETATM    4  N   UNL     1     -41.988 -51.798  11.784  1.00  0.00    -0.293 N 
HETATM    5  H   UNL     1     -41.087 -49.894  10.410  1.00  0.00     0.164 HD
HETATM    6  H   UNL     1     -41.439 -52.047  10.977  1.00  0.00     0.172 HD
ENDROOT
BRANCH   1   7
HETATM    7  C   UNL     1     -41.386 -48.188  11.616  1.00  0.00     0.160 C 
BRANCH   7   8
HETATM    8  C   UNL     1     -41.559 -47.305  10.352  1.00  0.00     0.240 C 
BRANCH   8   9
HETATM    9  C   UNL     1     -41.285 -45.813  10.690  1.00  0.00     0.033 C 
HETATM   10  C   UNL     1     -39.828 -45.390  10.533  1.00  0.00     0.007 C 
ENDBRANCH   8   9
BRANCH   8  11
HETATM   11  N   UNL     1     -42.869 -47.563   9.705  1.00  0.00     0.094 N 
HETATM   12  C   UNL     1     -43.217 -46.586   8.658  1.00  0.00     0.273 C 
HETATM   13  C   UNL     1     -44.708 -46.308   8.800  1.00  0.00     0.032 C 
HETATM   14  C   UNL     1     -45.213 -47.384   9.736  1.00  0.00     0.032 C 
HETATM   15  C   UNL     1     -44.013 -47.665  10.618  1.00  0.00     0.273 C 
ENDBRANCH   8  11
ENDBRANCH   7   8
ENDBRANCH   1   7
BRANCH   4  16
HETATM   16  C   UNL     1     -42.624 -52.810  12.511  1.00  0.00     0.127 A 
HETATM   17  C   UNL     1     -43.949 -53.189  12.457  1.00  0.00     0.076 A 
HETATM   18  C   UNL     1     -44.095 -54.235  13.394  1.00  0.00     0.025 A 
HETATM   19  C   UNL     1     -45.332 -54.981  13.730  1.00  0.00     0.070 C 
HETATM   20  N   UNL     1     -42.933 -54.515  13.993  1.00  0.00    -0.302 N 
HETATM   21  N   UNL     1     -42.057 -53.654  13.436  1.00  0.00    -0.281 N 
ATOM     22  HN  UNL     1     -42.751 -55.219  14.708  1.00  0.00     0.186 HD
HETATM   23  C   UNL     1     -40.689 -53.668  13.887  1.00  0.00     0.179 C 
ENDBRANCH   4  16
TORSDOF 5
ENDMDL
MODEL 3
REMARK VINA RESULT:      -5.8      2.900      7.096
REMARK  5 active torsions:
REMARK  status: ('A' for Active; 'I' for Inactive)
REMARK    1  A    between atoms: C_2  and  C_3 
REMARK    2  A    between atoms: C_3  and  C_4 
REMARK    3  A    between atoms: C_3  and  N_17 
REMARK    4  A    between atoms: C_4  and  N_5 
REMARK       I    between atoms: N_5  and  C_6 
REMARK       I    between atoms: C_6  and  N_8 
REMARK    5  A    between atoms: N_8  and  C_9 
ROOT
HETATM    1  N   UNL     1     -40.817 -50.561  11.124  1.00  0.00    -0.341 N 
HETATM    2  C   UNL     1     -41.585 -51.164  12.076  1.00  0.00     0.321 C 
HETATM    3  O   UNL     1     -41.979 -50.635  13.102  1.00  0.00    -0.247 OA
HETATM    4  N   UNL     1     -41.871 -52.520  11.761  1.00  0.00    -0.293 N 
HETATM    5  H   UNL     1     -40.677 -50.949  10.202  1.00  0.00     0.164 HD
HETATM    6  H   UNL     1     -41.441 -52.934  10.950  1.00  0.00     0.172 HD
ENDROOT
BRANCH   1   7
HETATM    7  C   UNL     1     -40.528 -49.144  11.286  1.00  0.00     0.160 C 
BRANCH   7   8
HETATM    8  C   UNL     1     -39.112 -48.846  11.844  1.00  0.00     0.240 C 
BRANCH   8   9
HETATM    9  C   UNL     1     -38.234 -50.129  11.810  1.00  0.00     0.033 C 
HETATM   10  C   UNL     1     -37.111 -50.095  10.778  1.00  0.00     0.007 C 
ENDBRANCH   8   9
BRANCH   8  11
HETATM   11  N   UNL     1     -39.196 -48.189  13.172  1.00  0.00     0.094 N 
HETATM   12  C   UNL     1     -39.624 -46.780  13.112  1.00  0.00     0.273 C 
HETATM   13  C   UNL     1     -38.790 -46.028  14.141  1.00  0.00     0.032 C 
HETATM   14  C   UNL     1     -38.131 -47.110  14.968  1.00  0.00     0.032 C 
HETATM   15  C   UNL     1     -37.976 -48.251  13.984  1.00  0.00     0.273 C 
ENDBRANCH   8  11
ENDBRANCH   7   8
ENDBRANCH   1   7
BRANCH   4  16
HETATM   16  C   UNL     1     -42.660 -53.321  12.595  1.00  0.00     0.127 A 
HETATM   17  C   UNL     1     -44.015 -53.558  12.508  1.00  0.00     0.076 A 
HETATM   18  C   UNL     1     -44.333 -54.410  13.588  1.00  0.00     0.025 A 
HETATM   19  C   UNL     1     -45.665 -54.951  13.951  1.00  0.00     0.070 C 
HETATM   20  N   UNL     1     -43.245 -54.710  14.305  1.00  0.00    -0.302 N 
HETATM   21  N   UNL     1     -42.245 -54.055  13.681  1.00  0.00    -0.281 N 
ATOM     22  HN  UNL     1     -43.185 -55.299  15.135  1.00  0.00     0.186 HD
HETATM   23  C   UNL     1     -40.914 -54.140  14.224  1.00  0.00     0.179 C 
ENDBRANCH   4  16
TORSDOF 5
ENDMDL
MODEL 4
REMARK VINA RESULT:      -5.8      1.062      2.068
REMARK  5 active torsions:
REMARK  status: ('A' for Active; 'I' for Inactive)
REMARK    1  A    between atoms: C_2  and  C_3 
REMARK    2  A    between atoms: C_3  and  C_4 
REMARK    3  A    between atoms: C_3  and  N_17 
REMARK    4  A    between atoms: C_4  and  N_5 
REMARK       I    between atoms: N_5  and  C_6 
REMARK       I    between atoms: C_6  and  N_8 
REMARK    5  A    between atoms: N_8  and  C_9 
ROOT
HETATM    1  N   UNL     1     -41.995 -51.189  12.302  1.00  0.00    -0.341 N 
HETATM    2  C   UNL     1     -41.803 -49.840  12.263  1.00  0.00     0.321 C 
HETATM    3  O   UNL     1     -41.681 -49.117  13.238  1.00  0.00    -0.247 OA
HETATM    4  N   UNL     1     -41.782 -49.335  10.934  1.00  0.00    -0.293 N 
HETATM    5  H   UNL     1     -41.890 -51.785  11.492  1.00  0.00     0.164 HD
HETATM    6  H   UNL     1     -41.984 -49.961  10.171  1.00  0.00     0.172 HD
ENDROOT
BRANCH   1   7
HETATM    7  C   UNL     1     -41.949 -51.841  13.602  1.00  0.00     0.160 C 
BRANCH   7   8
HETATM    8  C   UNL     1     -43.251 -52.593  13.981  1.00  0.00     0.240 C 
BRANCH   8   9
HETATM    9  C   UNL     1     -43.139 -54.097  13.606  1.00  0.00     0.033 C 
HETATM   10  C   UNL     1     -43.396 -55.055  14.764  1.00  0.00     0.007 C 
ENDBRANCH   8   9
BRANCH   8  11
HETATM   11  N   UNL     1     -44.440 -51.903  13.421  1.00  0.00     0.094 N 
HETATM   12  C   UNL     1     -45.329 -51.326  14.445  1.00  0.00     0.273 C 
HETATM   13  C   UNL     1     -46.756 -51.573  13.971  1.00  0.00     0.032 C 
HETATM   14  C   UNL     1     -46.612 -52.013  12.530  1.00  0.00     0.032 C 
HETATM   15  C   UNL     1     -45.265 -52.707  12.514  1.00  0.00     0.273 C 
ENDBRANCH   8  11
ENDBRANCH   7   8
ENDBRANCH   1   7
BRANCH   4  16
HETATM   16  C   UNL     1     -41.579 -47.977  10.663  1.00  0.00     0.127 A 
HETATM   17  C   UNL     1     -40.515 -47.187  11.040  1.00  0.00     0.076 A 
HETATM   18  C   UNL     1     -40.792 -45.894  10.544  1.00  0.00     0.025 A 
HETATM   19  C   UNL     1     -39.964 -44.673  10.691  1.00  0.00     0.070 C 
HETATM   20  N   UNL     1     -41.951 -45.869   9.879  1.00  0.00    -0.302 N 
HETATM   21  N   UNL     1     -42.403 -47.138   9.950  1.00  0.00    -0.281 N 
ATOM     22  HN  UNL     1     -42.393 -45.072   9.421  1.00  0.00     0.186 HD
HETATM   23  C   UNL     1     -43.671 -47.458   9.349  1.00  0.00     0.179 C 
ENDBRANCH   4  16
TORSDOF 5
ENDMDL
MODEL 5
REMARK VINA RESULT:      -5.8      2.078      7.220
REMARK  5 active torsions:
REMARK  status: ('A' for Active; 'I' for Inactive)
REMARK    1  A    between atoms: C_2  and  C_3 
REMARK    2  A    between atoms: C_3  and  C_4 
REMARK    3  A    between atoms: C_3  and  N_17 
REMARK    4  A    between atoms: C_4  and  N_5 
REMARK       I    between atoms: N_5  and  C_6 
REMARK       I    between atoms: C_6  and  N_8 
REMARK    5  A    between atoms: N_8  and  C_9 
ROOT
HETATM    1  N   UNL     1     -40.700 -50.473  11.096  1.00  0.00    -0.341 N 
HETATM    2  C   UNL     1     -41.329 -51.166  12.088  1.00  0.00     0.321 C 
HETATM    3  O   UNL     1     -41.312 -50.873  13.272  1.00  0.00    -0.247 OA
HETATM    4  N   UNL     1     -42.011 -52.314  11.599  1.00  0.00    -0.293 N 
HETATM    5  H   UNL     1     -40.895 -50.616  10.115  1.00  0.00     0.164 HD
HETATM    6  H   UNL     1     -41.913 -52.562  10.628  1.00  0.00     0.172 HD
ENDROOT
BRANCH   1   7
HETATM    7  C   UNL     1     -40.039 -49.228  11.456  1.00  0.00     0.160 C 
BRANCH   7   8
HETATM    8  C   UNL     1     -40.984 -47.999  11.501  1.00  0.00     0.240 C 
BRANCH   8   9
HETATM    9  C   UNL     1     -41.918 -47.986  10.259  1.00  0.00     0.033 C 
HETATM   10  C   UNL     1     -43.378 -47.674  10.573  1.00  0.00     0.007 C 
ENDBRANCH   8   9
BRANCH   8  11
HETATM   11  N   UNL     1     -40.212 -46.749  11.707  1.00  0.00     0.094 N 
HETATM   12  C   UNL     1     -40.643 -45.971  12.883  1.00  0.00     0.273 C 
HETATM   13  C   UNL     1     -40.592 -44.504  12.477  1.00  0.00     0.032 C 
HETATM   14  C   UNL     1     -39.831 -44.492  11.170  1.00  0.00     0.032 C 
HETATM   15  C   UNL     1     -40.172 -45.837  10.559  1.00  0.00     0.273 C 
ENDBRANCH   8  11
ENDBRANCH   7   8
ENDBRANCH   1   7
BRANCH   4  16
HETATM   16  C   UNL     1     -42.739 -53.158  12.445  1.00  0.00     0.127 A 
HETATM   17  C   UNL     1     -44.107 -53.300  12.528  1.00  0.00     0.076 A 
HETATM   18  C   UNL     1     -44.341 -54.252  13.544  1.00  0.00     0.025 A 
HETATM   19  C   UNL     1     -45.649 -54.750  14.033  1.00  0.00     0.070 C 
HETATM   20  N   UNL     1     -43.192 -54.699  14.062  1.00  0.00    -0.302 N 
HETATM   21  N   UNL     1     -42.238 -54.037  13.376  1.00  0.00    -0.281 N 
ATOM     22  HN  UNL     1     -43.065 -55.384  14.807  1.00  0.00     0.186 HD
HETATM   23  C   UNL     1     -40.856 -54.265  13.712  1.00  0.00     0.179 C 
ENDBRANCH   4  16
TORSDOF 5
ENDMDL
MODEL 6
REMARK VINA RESULT:      -5.8      1.405      2.756
REMARK  5 active torsions:
REMARK  status: ('A' for Active; 'I' for Inactive)
REMARK    1  A    between atoms: C_2  and  C_3 
REMARK    2  A    between atoms: C_3  and  C_4 
REMARK    3  A    between atoms: C_3  and  N_17 
REMARK    4  A    between atoms: C_4  and  N_5 
REMARK       I    between atoms: N_5  and  C_6 
REMARK       I    between atoms: C_6  and  N_8 
REMARK    5  A    between atoms: N_8  and  C_9 
ROOT
HETATM    1  N   UNL     1     -42.556 -51.129  12.232  1.00  0.00    -0.341 N 
HETATM    2  C   UNL     1     -42.384 -49.778  12.185  1.00  0.00     0.321 C 
HETATM    3  O   UNL     1     -42.745 -48.991  13.044  1.00  0.00    -0.247 OA
HETATM    4  N   UNL     1     -41.742 -49.355  10.989  1.00  0.00    -0.293 N 
HETATM    5  H   UNL     1     -42.075 -51.768  11.615  1.00  0.00     0.164 HD
HETATM    6  H   UNL     1     -41.551 -50.036  10.271  1.00  0.00     0.172 HD
ENDROOT
BRANCH   1   7
HETATM    7  C   UNL     1     -43.124 -51.696  13.446  1.00  0.00     0.160 C 
BRANCH   7   8
HETATM    8  C   UNL     1     -44.668 -51.582  13.537  1.00  0.00     0.240 C 
BRANCH   8   9
HETATM    9  C   UNL     1     -45.081 -50.847  14.843  1.00  0.00     0.033 C 
HETATM   10  C   UNL     1     -43.991 -50.798  15.909  1.00  0.00     0.007 C 
ENDBRANCH   8   9
BRANCH   8  11
HETATM   11  N   UNL     1     -45.306 -52.908  13.345  1.00  0.00     0.094 N 
HETATM   12  C   UNL     1     -46.471 -53.139  14.218  1.00  0.00     0.273 C 
HETATM   13  C   UNL     1     -46.395 -54.592  14.671  1.00  0.00     0.032 C 
HETATM   14  C   UNL     1     -45.346 -55.218  13.778  1.00  0.00     0.032 C 
HETATM   15  C   UNL     1     -44.412 -54.063  13.479  1.00  0.00     0.273 C 
ENDBRANCH   8  11
ENDBRANCH   7   8
ENDBRANCH   1   7
BRANCH   4  16
HETATM   16  C   UNL     1     -41.450 -48.009  10.743  1.00  0.00     0.127 A 
HETATM   17  C   UNL     1     -40.378 -47.275  11.205  1.00  0.00     0.076 A 
HETATM   18  C   UNL     1     -40.550 -45.969  10.697  1.00  0.00     0.025 A 
HETATM   19  C   UNL     1     -39.675 -44.792  10.915  1.00  0.00     0.070 C 
HETATM   20  N   UNL     1     -41.652 -45.883   9.945  1.00  0.00    -0.302 N 
HETATM   21  N   UNL     1     -42.172 -47.127   9.974  1.00  0.00    -0.281 N 
ATOM     22  HN  UNL     1     -42.016 -45.063   9.460  1.00  0.00     0.186 HD
HETATM   23  C   UNL     1     -43.405 -47.380   9.274  1.00  0.00     0.179 C 
ENDBRANCH   4  16
TORSDOF 5
ENDMDL
MODEL 7
REMARK VINA RESULT:      -5.7      2.449      4.349
REMARK  5 active torsions:
REMARK  status: ('A' for Active; 'I' for Inactive)
REMARK    1  A    between atoms: C_2  and  C_3 
REMARK    2  A    between atoms: C_3  and  C_4 
REMARK    3  A    between atoms: C_3  and  N_17 
REMARK    4  A    between atoms: C_4  and  N_5 
REMARK       I    between atoms: N_5  and  C_6 
REMARK       I    between atoms: C_6  and  N_8 
REMARK    5  A    between atoms: N_8  and  C_9 
ROOT
HETATM    1  N   UNL     1     -43.916 -53.006  12.114  1.00  0.00    -0.341 N 
HETATM    2  C   UNL     1     -42.853 -52.347  12.658  1.00  0.00     0.321 C 
HETATM    3  O   UNL     1     -42.653 -52.199  13.852  1.00  0.00    -0.247 OA
HETATM    4  N   UNL     1     -41.984 -51.811  11.669  1.00  0.00    -0.293 N 
HETATM    5  H   UNL     1     -43.952 -53.288  11.144  1.00  0.00     0.164 HD
HETATM    6  H   UNL     1     -42.248 -51.881  10.699  1.00  0.00     0.172 HD
ENDROOT
BRANCH   1   7
HETATM    7  C   UNL     1     -44.833 -53.676  13.023  1.00  0.00     0.160 C 
BRANCH   7   8
HETATM    8  C   UNL     1     -46.216 -52.987  13.150  1.00  0.00     0.240 C 
BRANCH   8   9
HETATM    9  C   UNL     1     -46.258 -51.690  12.294  1.00  0.00     0.033 C 
HETATM   10  C   UNL     1     -47.333 -51.685  11.212  1.00  0.00     0.007 C 
ENDBRANCH   8   9
BRANCH   8  11
HETATM   11  N   UNL     1     -46.582 -52.798  14.576  1.00  0.00     0.094 N 
HETATM   12  C   UNL     1     -46.913 -51.406  14.926  1.00  0.00     0.273 C 
HETATM   13  C   UNL     1     -46.312 -51.148  16.302  1.00  0.00     0.032 C 
HETATM   14  C   UNL     1     -45.925 -52.517  16.815  1.00  0.00     0.032 C 
HETATM   15  C   UNL     1     -45.596 -53.281  15.548  1.00  0.00     0.273 C 
ENDBRANCH   8  11
ENDBRANCH   7   8
ENDBRANCH   1   7
BRANCH   4  16
HETATM   16  C   UNL     1     -40.820 -51.113  12.008  1.00  0.00     0.127 A 
HETATM   17  C   UNL     1     -39.716 -51.583  12.686  1.00  0.00     0.076 A 
HETATM   18  C   UNL     1     -38.829 -50.489  12.795  1.00  0.00     0.025 A 
HETATM   19  C   UNL     1     -37.499 -50.466  13.451  1.00  0.00     0.070 C 
HETATM   20  N   UNL     1     -39.331 -49.398  12.207  1.00  0.00    -0.302 N 
HETATM   21  N   UNL     1     -40.526 -49.799  11.727  1.00  0.00    -0.281 N 
ATOM     22  HN  UNL     1     -38.907 -48.473  12.139  1.00  0.00     0.186 HD
HETATM   23  C   UNL     1     -41.359 -48.840  11.050  1.00  0.00     0.179 C 
ENDBRANCH   4  16
TORSDOF 5
ENDMDL
MODEL 8
REMARK VINA RESULT:      -5.6      2.025      3.782
REMARK  5 active torsions:
REMARK  status: ('A' for Active; 'I' for Inactive)
REMARK    1  A    between atoms: C_2  and  C_3 
REMARK    2  A    between atoms: C_3  and  C_4 
REMARK    3  A    between atoms: C_3  and  N_17 
REMARK    4  A    between atoms: C_4  and  N_5 
REMARK       I    between atoms: N_5  and  C_6 
REMARK       I    between atoms: C_6  and  N_8 
REMARK    5  A    between atoms: N_8  and  C_9 
ROOT
HETATM    1  N   UNL     1     -40.826 -51.088  11.374  1.00  0.00    -0.341 N 
HETATM    2  C   UNL     1     -41.005 -49.771  11.679  1.00  0.00     0.321 C 
HETATM    3  O   UNL     1     -41.011 -49.304  12.806  1.00  0.00    -0.247 OA
HETATM    4  N   UNL     1     -41.217 -48.971  10.523  1.00  0.00    -0.293 N 
HETATM    5  H   UNL     1     -40.624 -51.414  10.439  1.00  0.00     0.164 HD
HETATM    6  H   UNL     1     -41.298 -49.423   9.626  1.00  0.00     0.172 HD
ENDROOT
BRANCH   1   7
HETATM    7  C   UNL     1     -40.512 -51.998  12.464  1.00  0.00     0.160 C 
BRANCH   7   8
HETATM    8  C   UNL     1     -41.517 -53.169  12.621  1.00  0.00     0.240 C 
BRANCH   8   9
HETATM    9  C   UNL     1     -42.906 -52.637  13.069  1.00  0.00     0.033 C 
HETATM   10  C   UNL     1     -44.088 -53.286  12.356  1.00  0.00     0.007 C 
ENDBRANCH   8   9
BRANCH   8  11
HETATM   11  N   UNL     1     -40.953 -54.234  13.488  1.00  0.00     0.094 N 
HETATM   12  C   UNL     1     -41.674 -54.408  14.761  1.00  0.00     0.273 C 
HETATM   13  C   UNL     1     -40.618 -54.661  15.829  1.00  0.00     0.032 C 
HETATM   14  C   UNL     1     -39.345 -54.929  15.056  1.00  0.00     0.032 C 
HETATM   15  C   UNL     1     -39.525 -54.104  13.798  1.00  0.00     0.273 C 
ENDBRANCH   8  11
ENDBRANCH   7   8
ENDBRANCH   1   7
BRANCH   4  16
HETATM   16  C   UNL     1     -41.405 -47.587  10.606  1.00  0.00     0.127 A 
HETATM   17  C   UNL     1     -40.454 -46.614  10.825  1.00  0.00     0.076 A 
HETATM   18  C   UNL     1     -41.149 -45.385  10.845  1.00  0.00     0.025 A 
HETATM   19  C   UNL     1     -40.586 -44.030  11.059  1.00  0.00     0.070 C 
HETATM   20  N   UNL     1     -42.457 -45.565  10.634  1.00  0.00    -0.302 N 
HETATM   21  N   UNL     1     -42.588 -46.899  10.479  1.00  0.00    -0.281 N 
ATOM     22  HN  UNL     1     -43.190 -44.856  10.599  1.00  0.00     0.186 HD
HETATM   23  C   UNL     1     -43.902 -47.446  10.261  1.00  0.00     0.179 C 
ENDBRANCH   4  16
TORSDOF 5
ENDMDL
MODEL 9
REMARK VINA RESULT:      -5.5      2.026      6.431
REMARK  5 active torsions:
REMARK  status: ('A' for Active; 'I' for Inactive)
REMARK    1  A    between atoms: C_2  and  C_3 
REMARK    2  A    between atoms: C_3  and  C_4 
REMARK    3  A    between atoms: C_3  and  N_17 
REMARK    4  A    between atoms: C_4  and  N_5 
REMARK       I    between atoms: N_5  and  C_6 
REMARK       I    between atoms: C_6  and  N_8 
REMARK    5  A    between atoms: N_8  and  C_9 
ROOT
HETATM    1  N   UNL     1     -42.363 -51.972  11.785  1.00  0.00    -0.341 N 
HETATM    2  C   UNL     1     -43.097 -52.125  12.924  1.00  0.00     0.321 C 
HETATM    3  O   UNL     1     -42.639 -52.194  14.052  1.00  0.00    -0.247 OA
HETATM    4  N   UNL     1     -44.490 -52.223  12.661  1.00  0.00    -0.293 N 
HETATM    5  H   UNL     1     -42.771 -51.716  10.897  1.00  0.00     0.164 HD
HETATM    6  H   UNL     1     -44.805 -52.256  11.705  1.00  0.00     0.172 HD
ENDROOT
BRANCH   1   7
HETATM    7  C   UNL     1     -40.929 -51.772  11.926  1.00  0.00     0.160 C 
BRANCH   7   8
HETATM    8  C   UNL     1     -40.473 -50.301  11.742  1.00  0.00     0.240 C 
BRANCH   8   9
HETATM    9  C   UNL     1     -39.409 -49.924  12.811  1.00  0.00     0.033 C 
HETATM   10  C   UNL     1     -38.166 -49.244  12.248  1.00  0.00     0.007 C 
ENDBRANCH   8   9
BRANCH   8  11
HETATM   11  N   UNL     1     -41.643 -49.390  11.686  1.00  0.00     0.094 N 
HETATM   12  C   UNL     1     -41.600 -48.434  10.566  1.00  0.00     0.273 C 
HETATM   13  C   UNL     1     -42.123 -47.108  11.104  1.00  0.00     0.032 C 
HETATM   14  C   UNL     1     -42.739 -47.452  12.442  1.00  0.00     0.032 C 
HETATM   15  C   UNL     1     -41.908 -48.629  12.912  1.00  0.00     0.273 C 
ENDBRANCH   8  11
ENDBRANCH   7   8
ENDBRANCH   1   7
BRANCH   4  16
HETATM   16  C   UNL     1     -45.428 -52.365  13.690  1.00  0.00     0.127 A 
HETATM   17  C   UNL     1     -46.085 -51.371  14.382  1.00  0.00     0.076 A 
HETATM   18  C   UNL     1     -46.903 -52.027  15.328  1.00  0.00     0.025 A 
HETATM   19  C   UNL     1     -47.803 -51.407  16.330  1.00  0.00     0.070 C 
HETATM   20  N   UNL     1     -46.785 -53.356  15.231  1.00  0.00    -0.302 N 
HETATM   21  N   UNL     1     -45.902 -53.538  14.228  1.00  0.00    -0.281 N 
ATOM     22  HN  UNL     1     -47.256 -54.068  15.789  1.00  0.00     0.186 HD
HETATM   23  C   UNL     1     -45.519 -54.881  13.876  1.00  0.00     0.179 C 
ENDBRANCH   4  16
TORSDOF 5
ENDMDL
