MODEL 1
REMARK VINA RESULT:      -6.7      0.000      0.000
REMARK  8 active torsions:
REMARK  status: ('A' for Active; 'I' for Inactive)
REMARK    1  A    between atoms: O_1  and  C_2 
REMARK    2  A    between atoms: C_2  and  C_3 
REMARK    3  A    between atoms: N_12  and  C_13 
REMARK    4  A    between atoms: C_13  and  C_14 
REMARK    5  A    between atoms: C_14  and  O_15 
REMARK    6  A    between atoms: C_14  and  C_16 
REMARK    7  A    between atoms: C_16  and  O_17 
REMARK    8  A    between atoms: O_17  and  C_18 
ROOT
HETATM    1  C   UNL     1     -39.341 -49.569  12.150  1.00  0.00     0.108 A 
HETATM    2  N   UNL     1     -39.320 -48.386  11.563  1.00  0.00    -0.342 N 
ATOM      3  HN  UNL     1     -38.495 -47.848  11.298  1.00  0.00     0.167 HD
HETATM    4  C   UNL     1     -40.628 -48.028  11.383  1.00  0.00     0.060 A 
HETATM    5  C   UNL     1     -41.153 -46.886  10.760  1.00  0.00     0.032 A 
HETATM    6  C   UNL     1     -42.540 -46.735  10.685  1.00  0.00     0.002 A 
HETATM    7  C   UNL     1     -43.388 -47.699  11.232  1.00  0.00     0.002 A 
HETATM    8  C   UNL     1     -42.881 -48.844  11.861  1.00  0.00     0.032 A 
HETATM    9  C   UNL     1     -41.487 -48.984  11.918  1.00  0.00     0.062 A 
HETATM   10  N   UNL     1     -40.642 -49.951  12.426  1.00  0.00    -0.330 N 
ENDROOT
BRANCH  10  11
HETATM   11  C   UNL     1     -41.061 -51.185  13.071  1.00  0.00     0.164 C 
BRANCH  11  12
HETATM   12  C   UNL     1     -41.581 -52.266  12.110  1.00  0.00     0.160 C 
BRANCH  12  13
HETATM   13  O   UNL     1     -40.488 -52.967  11.502  1.00  0.00    -0.392 OA
HETATM   14  H   UNL     1     -39.893 -53.265  12.214  1.00  0.00     0.210 HD
ENDBRANCH  12  13
BRANCH  12  15
HETATM   15  C   UNL     1     -42.565 -53.242  12.770  1.00  0.00     0.209 C 
BRANCH  15  16
HETATM   16  O   UNL     1     -43.868 -53.005  12.225  1.00  0.00    -0.345 OA
BRANCH  16  17
HETATM   17  C   UNL     1     -44.908 -52.934  13.111  1.00  0.00     0.107 A 
HETATM   18  C   UNL     1     -45.340 -51.632  13.390  1.00  0.00     0.040 A 
HETATM   19  C   UNL     1     -46.385 -51.404  14.290  1.00  0.00     0.003 A 
HETATM   20  C   UNL     1     -47.003 -52.477  14.925  1.00  0.00     0.003 A 
HETATM   21  C   UNL     1     -46.588 -53.778  14.652  1.00  0.00     0.045 A 
HETATM   22  C   UNL     1     -45.547 -54.000  13.750  1.00  0.00     0.149 A 
HETATM   23  F   UNL     1     -45.184 -55.271  13.529  1.00  0.00    -0.203 F 
ENDBRANCH  16  17
ENDBRANCH  15  16
ENDBRANCH  12  15
ENDBRANCH  11  12
ENDBRANCH  10  11
BRANCH   1  24
HETATM   24  C   UNL     1     -38.123 -50.367  12.467  1.00  0.00     0.240 C 
BRANCH  24  25
HETATM   25  O   UNL     1     -37.880 -51.252  11.381  1.00  0.00    -0.393 OA
HETATM   26  H   UNL     1     -36.947 -51.132  11.140  1.00  0.00     0.209 HD
ENDBRANCH  24  25
ENDBRANCH   1  24
TORSDOF 8
ENDMDL
MODEL 2
REMARK VINA RESULT:      -6.3      2.734      3.892
REMARK  8 active torsions:
REMARK  status: ('A' for Active; 'I' for Inactive)
REMARK    1  A    between atoms: O_1  and  C_2 
REMARK    2  A    between atoms: C_2  and  C_3 
REMARK    3  A    between atoms: N_12  and  C_13 
REMARK    4  A    between atoms: C_13  and  C_14 
REMARK    5  A    between atoms: C_14  and  O_15 
REMARK    6  A    between atoms: C_14  and  C_16 
REMARK    7  A    between atoms: C_16  and  O_17 
REMARK    8  A    between atoms: O_17  and  C_18 
ROOT
HETATM    1  C   UNL     1     -41.572 -53.093  13.440  1.00  0.00     0.108 A 
HETATM    2  N   UNL     1     -41.780 -51.989  12.745  1.00  0.00    -0.342 N 
ATOM      3  HN  UNL     1     -41.544 -51.828  11.766  1.00  0.00     0.167 HD
HETATM    4  C   UNL     1     -42.374 -51.106  13.603  1.00  0.00     0.060 A 
HETATM    5  C   UNL     1     -42.845 -49.810  13.349  1.00  0.00     0.032 A 
HETATM    6  C   UNL     1     -43.431 -49.087  14.393  1.00  0.00     0.002 A 
HETATM    7  C   UNL     1     -43.536 -49.644  15.668  1.00  0.00     0.002 A 
HETATM    8  C   UNL     1     -43.069 -50.936  15.940  1.00  0.00     0.032 A 
HETATM    9  C   UNL     1     -42.493 -51.650  14.879  1.00  0.00     0.062 A 
HETATM   10  N   UNL     1     -41.950 -52.914  14.760  1.00  0.00    -0.330 N 
ENDROOT
BRANCH  10  11
HETATM   11  C   UNL     1     -41.864 -53.902  15.823  1.00  0.00     0.164 C 
BRANCH  11  12
HETATM   12  C   UNL     1     -43.047 -54.881  15.885  1.00  0.00     0.160 C 
BRANCH  12  13
HETATM   13  O   UNL     1     -42.647 -56.116  16.493  1.00  0.00    -0.392 OA
HETATM   14  H   UNL     1     -41.753 -56.332  16.169  1.00  0.00     0.210 HD
ENDBRANCH  12  13
BRANCH  12  15
HETATM   15  C   UNL     1     -44.283 -54.297  16.583  1.00  0.00     0.209 C 
BRANCH  15  16
HETATM   16  O   UNL     1     -45.421 -54.514  15.740  1.00  0.00    -0.345 OA
BRANCH  16  17
HETATM   17  C   UNL     1     -45.660 -53.584  14.767  1.00  0.00     0.107 A 
HETATM   18  C   UNL     1     -46.356 -52.453  15.210  1.00  0.00     0.040 A 
HETATM   19  C   UNL     1     -46.685 -51.424  14.322  1.00  0.00     0.003 A 
HETATM   20  C   UNL     1     -46.326 -51.521  12.981  1.00  0.00     0.003 A 
HETATM   21  C   UNL     1     -45.629 -52.637  12.528  1.00  0.00     0.045 A 
HETATM   22  C   UNL     1     -45.299 -53.659  13.418  1.00  0.00     0.149 A 
HETATM   23  F   UNL     1     -44.632 -54.714  12.928  1.00  0.00    -0.203 F 
ENDBRANCH  16  17
ENDBRANCH  15  16
ENDBRANCH  12  15
ENDBRANCH  11  12
ENDBRANCH  10  11
BRANCH   1  24
HETATM   24  C   UNL     1     -41.004 -54.347  12.868  1.00  0.00     0.240 C 
BRANCH  24  25
HETATM   25  O   UNL     1     -39.606 -54.355  13.122  1.00  0.00    -0.393 OA
HETATM   26  H   UNL     1     -39.178 -54.122  12.282  1.00  0.00     0.209 HD
ENDBRANCH  24  25
ENDBRANCH   1  24
TORSDOF 8
ENDMDL
MODEL 3
REMARK VINA RESULT:      -6.0      3.546      5.703
REMARK  8 active torsions:
REMARK  status: ('A' for Active; 'I' for Inactive)
REMARK    1  A    between atoms: O_1  and  C_2 
REMARK    2  A    between atoms: C_2  and  C_3 
REMARK    3  A    between atoms: N_12  and  C_13 
REMARK    4  A    between atoms: C_13  and  C_14 
REMARK    5  A    between atoms: C_14  and  O_15 
REMARK    6  A    between atoms: C_14  and  C_16 
REMARK    7  A    between atoms: C_16  and  O_17 
REMARK    8  A    between atoms: O_17  and  C_18 
ROOT
HETATM    1  C   UNL     1     -45.265 -51.405  13.292  1.00  0.00     0.108 A 
HETATM    2  N   UNL     1     -44.244 -50.721  12.808  1.00  0.00    -0.342 N 
ATOM      3  HN  UNL     1     -44.181 -50.281  11.890  1.00  0.00     0.167 HD
HETATM    4  C   UNL     1     -43.289 -50.721  13.787  1.00  0.00     0.060 A 
HETATM    5  C   UNL     1     -42.036 -50.091  13.797  1.00  0.00     0.032 A 
HETATM    6  C   UNL     1     -41.221 -50.226  14.925  1.00  0.00     0.002 A 
HETATM    7  C   UNL     1     -41.644 -50.984  16.017  1.00  0.00     0.002 A 
HETATM    8  C   UNL     1     -42.891 -51.623  16.023  1.00  0.00     0.032 A 
HETATM    9  C   UNL     1     -43.699 -51.468  14.887  1.00  0.00     0.062 A 
HETATM   10  N   UNL     1     -44.957 -51.918  14.540  1.00  0.00    -0.330 N 
ENDROOT
BRANCH  10  11
HETATM   11  C   UNL     1     -45.827 -52.728  15.378  1.00  0.00     0.164 C 
BRANCH  11  12
HETATM   12  C   UNL     1     -45.904 -54.210  14.976  1.00  0.00     0.160 C 
BRANCH  12  13
HETATM   13  O   UNL     1     -47.154 -54.493  14.335  1.00  0.00    -0.392 OA
HETATM   14  H   UNL     1     -47.657 -53.660  14.281  1.00  0.00     0.210 HD
ENDBRANCH  12  13
BRANCH  12  15
HETATM   15  C   UNL     1     -44.722 -54.666  14.109  1.00  0.00     0.209 C 
BRANCH  15  16
HETATM   16  O   UNL     1     -43.736 -55.253  14.965  1.00  0.00    -0.345 OA
BRANCH  16  17
HETATM   17  C   UNL     1     -42.439 -54.856  14.782  1.00  0.00     0.107 A 
HETATM   18  C   UNL     1     -42.178 -54.308  13.522  1.00  0.00     0.040 A 
HETATM   19  C   UNL     1     -40.892 -53.873  13.185  1.00  0.00     0.003 A 
HETATM   20  C   UNL     1     -39.855 -53.988  14.107  1.00  0.00     0.003 A 
HETATM   21  C   UNL     1     -40.103 -54.525  15.367  1.00  0.00     0.045 A 
HETATM   22  C   UNL     1     -41.388 -54.955  15.698  1.00  0.00     0.149 A 
HETATM   23  F   UNL     1     -41.570 -55.469  16.923  1.00  0.00    -0.203 F 
ENDBRANCH  16  17
ENDBRANCH  15  16
ENDBRANCH  12  15
ENDBRANCH  11  12
ENDBRANCH  10  11
BRANCH   1  24
HETATM   24  C   UNL     1     -46.559 -51.592  12.577  1.00  0.00     0.240 C 
BRANCH  24  25
HETATM   25  O   UNL     1     -46.435 -52.725  11.727  1.00  0.00    -0.393 OA
HETATM   26  H   UNL     1     -46.672 -52.420  10.836  1.00  0.00     0.209 HD
ENDBRANCH  24  25
ENDBRANCH   1  24
TORSDOF 8
ENDMDL
MODEL 4
REMARK VINA RESULT:      -6.0      2.918      6.608
REMARK  8 active torsions:
REMARK  status: ('A' for Active; 'I' for Inactive)
REMARK    1  A    between atoms: O_1  and  C_2 
REMARK    2  A    between atoms: C_2  and  C_3 
REMARK    3  A    between atoms: N_12  and  C_13 
REMARK    4  A    between atoms: C_13  and  C_14 
REMARK    5  A    between atoms: C_14  and  O_15 
REMARK    6  A    between atoms: C_14  and  C_16 
REMARK    7  A    between atoms: C_16  and  O_17 
REMARK    8  A    between atoms: O_17  and  C_18 
ROOT
HETATM    1  C   UNL     1     -40.843 -54.087  14.059  1.00  0.00     0.108 A 
HETATM    2  N   UNL     1     -41.690 -54.749  14.826  1.00  0.00    -0.342 N 
ATOM      3  HN  UNL     1     -41.461 -55.331  15.632  1.00  0.00     0.167 HD
HETATM    4  C   UNL     1     -42.936 -54.497  14.322  1.00  0.00     0.060 A 
HETATM    5  C   UNL     1     -44.184 -54.921  14.801  1.00  0.00     0.032 A 
HETATM    6  C   UNL     1     -45.339 -54.528  14.117  1.00  0.00     0.002 A 
HETATM    7  C   UNL     1     -45.249 -53.738  12.971  1.00  0.00     0.002 A 
HETATM    8  C   UNL     1     -44.010 -53.308  12.477  1.00  0.00     0.032 A 
HETATM    9  C   UNL     1     -42.863 -53.703  13.181  1.00  0.00     0.062 A 
HETATM   10  N   UNL     1     -41.512 -53.472  13.016  1.00  0.00    -0.330 N 
ENDROOT
BRANCH  10  11
HETATM   11  C   UNL     1     -40.915 -52.661  11.966  1.00  0.00     0.164 C 
BRANCH  11  12
HETATM   12  C   UNL     1     -40.355 -51.311  12.441  1.00  0.00     0.160 C 
BRANCH  12  13
HETATM   13  O   UNL     1     -39.073 -51.062  11.849  1.00  0.00    -0.392 OA
HETATM   14  H   UNL     1     -38.976 -51.661  11.086  1.00  0.00     0.210 HD
ENDBRANCH  12  13
BRANCH  12  15
HETATM   15  C   UNL     1     -41.314 -50.137  12.197  1.00  0.00     0.209 C 
BRANCH  15  16
HETATM   16  O   UNL     1     -40.973 -49.530  10.945  1.00  0.00    -0.345 OA
BRANCH  16  17
HETATM   17  C   UNL     1     -41.075 -48.168  10.868  1.00  0.00     0.107 A 
HETATM   18  C   UNL     1     -40.048 -47.476  11.519  1.00  0.00     0.040 A 
HETATM   19  C   UNL     1     -40.029 -46.078  11.537  1.00  0.00     0.003 A 
HETATM   20  C   UNL     1     -41.043 -45.360  10.909  1.00  0.00     0.003 A 
HETATM   21  C   UNL     1     -42.067 -46.036  10.253  1.00  0.00     0.045 A 
HETATM   22  C   UNL     1     -42.079 -47.431  10.234  1.00  0.00     0.149 A 
HETATM   23  F   UNL     1     -43.092 -48.030   9.593  1.00  0.00    -0.203 F 
ENDBRANCH  16  17
ENDBRANCH  15  16
ENDBRANCH  12  15
ENDBRANCH  11  12
ENDBRANCH  10  11
BRANCH   1  24
HETATM   24  C   UNL     1     -39.373 -54.025  14.297  1.00  0.00     0.240 C 
BRANCH  24  25
HETATM   25  O   UNL     1     -38.739 -54.901  13.374  1.00  0.00    -0.393 OA
HETATM   26  H   UNL     1     -39.121 -55.780  13.533  1.00  0.00     0.209 HD
ENDBRANCH  24  25
ENDBRANCH   1  24
TORSDOF 8
ENDMDL
MODEL 5
REMARK VINA RESULT:      -6.0      2.759      4.268
REMARK  8 active torsions:
REMARK  status: ('A' for Active; 'I' for Inactive)
REMARK    1  A    between atoms: O_1  and  C_2 
REMARK    2  A    between atoms: C_2  and  C_3 
REMARK    3  A    between atoms: N_12  and  C_13 
REMARK    4  A    between atoms: C_13  and  C_14 
REMARK    5  A    between atoms: C_14  and  O_15 
REMARK    6  A    between atoms: C_14  and  C_16 
REMARK    7  A    between atoms: C_16  and  O_17 
REMARK    8  A    between atoms: O_17  and  C_18 
ROOT
HETATM    1  C   UNL     1     -42.443 -50.391  15.073  1.00  0.00     0.108 A 
HETATM    2  N   UNL     1     -43.396 -50.402  15.987  1.00  0.00    -0.342 N 
ATOM      3  HN  UNL     1     -43.300 -50.174  16.976  1.00  0.00     0.167 HD
HETATM    4  C   UNL     1     -44.539 -50.781  15.338  1.00  0.00     0.060 A 
HETATM    5  C   UNL     1     -45.842 -50.900  15.842  1.00  0.00     0.032 A 
HETATM    6  C   UNL     1     -46.866 -51.302  14.980  1.00  0.00     0.002 A 
HETATM    7  C   UNL     1     -46.593 -51.590  13.642  1.00  0.00     0.002 A 
HETATM    8  C   UNL     1     -45.297 -51.480  13.122  1.00  0.00     0.032 A 
HETATM    9  C   UNL     1     -44.284 -51.066  13.999  1.00  0.00     0.062 A 
HETATM   10  N   UNL     1     -42.931 -50.834  13.856  1.00  0.00    -0.330 N 
ENDROOT
BRANCH  10  11
HETATM   11  C   UNL     1     -42.176 -50.964  12.619  1.00  0.00     0.164 C 
BRANCH  11  12
HETATM   12  C   UNL     1     -41.911 -52.413  12.181  1.00  0.00     0.160 C 
BRANCH  12  13
HETATM   13  O   UNL     1     -41.252 -52.441  10.909  1.00  0.00    -0.392 OA
HETATM   14  H   UNL     1     -40.853 -51.564  10.760  1.00  0.00     0.210 HD
ENDBRANCH  12  13
BRANCH  12  15
HETATM   15  C   UNL     1     -41.136 -53.230  13.224  1.00  0.00     0.209 C 
BRANCH  15  16
HETATM   16  O   UNL     1     -41.869 -54.431  13.492  1.00  0.00    -0.345 OA
BRANCH  16  17
HETATM   17  C   UNL     1     -42.825 -54.370  14.468  1.00  0.00     0.107 A 
HETATM   18  C   UNL     1     -42.335 -54.032  15.734  1.00  0.00     0.040 A 
HETATM   19  C   UNL     1     -43.195 -53.947  16.833  1.00  0.00     0.003 A 
HETATM   20  C   UNL     1     -44.553 -54.206  16.676  1.00  0.00     0.003 A 
HETATM   21  C   UNL     1     -45.055 -54.537  15.420  1.00  0.00     0.045 A 
HETATM   22  C   UNL     1     -44.194 -54.617  14.326  1.00  0.00     0.149 A 
HETATM   23  F   UNL     1     -44.729 -54.945  13.142  1.00  0.00    -0.203 F 
ENDBRANCH  16  17
ENDBRANCH  15  16
ENDBRANCH  12  15
ENDBRANCH  11  12
ENDBRANCH  10  11
BRANCH   1  24
HETATM   24  C   UNL     1     -41.039 -49.961  15.335  1.00  0.00     0.240 C 
BRANCH  24  25
HETATM   25  O   UNL     1     -40.927 -48.586  14.990  1.00  0.00    -0.393 OA
HETATM   26  H   UNL     1     -40.913 -48.099  15.831  1.00  0.00     0.209 HD
ENDBRANCH  24  25
ENDBRANCH   1  24
TORSDOF 8
ENDMDL
MODEL 6
REMARK VINA RESULT:      -6.0      2.571      4.049
REMARK  8 active torsions:
REMARK  status: ('A' for Active; 'I' for Inactive)
REMARK    1  A    between atoms: O_1  and  C_2 
REMARK    2  A    between atoms: C_2  and  C_3 
REMARK    3  A    between atoms: N_12  and  C_13 
REMARK    4  A    between atoms: C_13  and  C_14 
REMARK    5  A    between atoms: C_14  and  O_15 
REMARK    6  A    between atoms: C_14  and  C_16 
REMARK    7  A    between atoms: C_16  and  O_17 
REMARK    8  A    between atoms: O_17  and  C_18 
ROOT
HETATM    1  C   UNL     1     -41.970 -47.211  10.803  1.00  0.00     0.108 A 
HETATM    2  N   UNL     1     -41.356 -46.042  10.794  1.00  0.00    -0.342 N 
ATOM      3  HN  UNL     1     -41.495 -45.282  10.129  1.00  0.00     0.167 HD
HETATM    4  C   UNL     1     -40.496 -46.056  11.857  1.00  0.00     0.060 A 
HETATM    5  C   UNL     1     -39.648 -45.039  12.321  1.00  0.00     0.032 A 
HETATM    6  C   UNL     1     -38.855 -45.282  13.446  1.00  0.00     0.002 A 
HETATM    7  C   UNL     1     -38.898 -46.519  14.090  1.00  0.00     0.002 A 
HETATM    8  C   UNL     1     -39.736 -47.546  13.639  1.00  0.00     0.032 A 
HETATM    9  C   UNL     1     -40.532 -47.282  12.515  1.00  0.00     0.062 A 
HETATM   10  N   UNL     1     -41.465 -48.017  11.809  1.00  0.00    -0.330 N 
ENDROOT
BRANCH  10  11
HETATM   11  C   UNL     1     -41.887 -49.373  12.122  1.00  0.00     0.164 C 
BRANCH  11  12
HETATM   12  C   UNL     1     -41.061 -50.474  11.439  1.00  0.00     0.160 C 
BRANCH  12  13
HETATM   13  O   UNL     1     -40.339 -49.941  10.321  1.00  0.00    -0.392 OA
HETATM   14  H   UNL     1     -40.989 -49.589   9.687  1.00  0.00     0.210 HD
ENDBRANCH  12  13
BRANCH  12  15
HETATM   15  C   UNL     1     -40.123 -51.214  12.402  1.00  0.00     0.209 C 
BRANCH  15  16
HETATM   16  O   UNL     1     -40.277 -52.622  12.189  1.00  0.00    -0.345 OA
BRANCH  16  17
HETATM   17  C   UNL     1     -41.073 -53.300  13.072  1.00  0.00     0.107 A 
HETATM   18  C   UNL     1     -40.382 -53.879  14.142  1.00  0.00     0.040 A 
HETATM   19  C   UNL     1     -41.063 -54.616  15.116  1.00  0.00     0.003 A 
HETATM   20  C   UNL     1     -42.441 -54.786  15.023  1.00  0.00     0.003 A 
HETATM   21  C   UNL     1     -43.141 -54.210  13.967  1.00  0.00     0.045 A 
HETATM   22  C   UNL     1     -42.458 -53.472  13.000  1.00  0.00     0.149 A 
HETATM   23  F   UNL     1     -43.181 -52.945  12.002  1.00  0.00    -0.203 F 
ENDBRANCH  16  17
ENDBRANCH  15  16
ENDBRANCH  12  15
ENDBRANCH  11  12
ENDBRANCH  10  11
BRANCH   1  24
HETATM   24  C   UNL     1     -43.051 -47.595   9.852  1.00  0.00     0.240 C 
BRANCH  24  25
HETATM   25  O   UNL     1     -42.449 -48.231   8.732  1.00  0.00    -0.393 OA
HETATM   26  H   UNL     1     -41.557 -47.854   8.656  1.00  0.00     0.209 HD
ENDBRANCH  24  25
ENDBRANCH   1  24
TORSDOF 8
ENDMDL
MODEL 7
REMARK VINA RESULT:      -5.9      2.731      6.547
REMARK  8 active torsions:
REMARK  status: ('A' for Active; 'I' for Inactive)
REMARK    1  A    between atoms: O_1  and  C_2 
REMARK    2  A    between atoms: C_2  and  C_3 
REMARK    3  A    between atoms: N_12  and  C_13 
REMARK    4  A    between atoms: C_13  and  C_14 
REMARK    5  A    between atoms: C_14  and  O_15 
REMARK    6  A    between atoms: C_14  and  C_16 
REMARK    7  A    between atoms: C_16  and  O_17 
REMARK    8  A    between atoms: O_17  and  C_18 
ROOT
HETATM    1  C   UNL     1     -42.308 -52.173  12.284  1.00  0.00     0.108 A 
HETATM    2  N   UNL     1     -43.190 -53.143  12.128  1.00  0.00    -0.342 N 
ATOM      3  HN  UNL     1     -43.061 -54.011  11.607  1.00  0.00     0.167 HD
HETATM    4  C   UNL     1     -44.312 -52.750  12.804  1.00  0.00     0.060 A 
HETATM    5  C   UNL     1     -45.517 -53.442  12.993  1.00  0.00     0.032 A 
HETATM    6  C   UNL     1     -46.534 -52.836  13.737  1.00  0.00     0.002 A 
HETATM    7  C   UNL     1     -46.356 -51.560  14.273  1.00  0.00     0.002 A 
HETATM    8  C   UNL     1     -45.159 -50.854  14.092  1.00  0.00     0.032 A 
HETATM    9  C   UNL     1     -44.147 -51.480  13.352  1.00  0.00     0.062 A 
HETATM   10  N   UNL     1     -42.865 -51.118  12.986  1.00  0.00    -0.330 N 
ENDROOT
BRANCH  10  11
HETATM   11  C   UNL     1     -42.203 -49.874  13.344  1.00  0.00     0.164 C 
BRANCH  11  12
HETATM   12  C   UNL     1     -41.852 -48.970  12.152  1.00  0.00     0.160 C 
BRANCH  12  13
HETATM   13  O   UNL     1     -43.034 -48.616  11.423  1.00  0.00    -0.392 OA
HETATM   14  H   UNL     1     -43.800 -48.987  11.899  1.00  0.00     0.210 HD
ENDBRANCH  12  13
BRANCH  12  15
HETATM   15  C   UNL     1     -41.056 -47.720  12.553  1.00  0.00     0.209 C 
BRANCH  15  16
HETATM   16  O   UNL     1     -39.761 -47.796  11.945  1.00  0.00    -0.345 OA
BRANCH  16  17
HETATM   17  C   UNL     1     -38.909 -48.756  12.417  1.00  0.00     0.107 A 
HETATM   18  C   UNL     1     -38.325 -49.547  11.422  1.00  0.00     0.040 A 
HETATM   19  C   UNL     1     -37.444 -50.580  11.757  1.00  0.00     0.003 A 
HETATM   20  C   UNL     1     -37.144 -50.834  13.092  1.00  0.00     0.003 A 
HETATM   21  C   UNL     1     -37.714 -50.050  14.092  1.00  0.00     0.045 A 
HETATM   22  C   UNL     1     -38.589 -49.019  13.753  1.00  0.00     0.149 A 
HETATM   23  F   UNL     1     -39.113 -48.299  14.755  1.00  0.00    -0.203 F 
ENDBRANCH  16  17
ENDBRANCH  15  16
ENDBRANCH  12  15
ENDBRANCH  11  12
ENDBRANCH  10  11
BRANCH   1  24
HETATM   24  C   UNL     1     -40.911 -52.221  11.766  1.00  0.00     0.240 C 
BRANCH  24  25
HETATM   25  O   UNL     1     -40.637 -53.556  11.361  1.00  0.00    -0.393 OA
HETATM   26  H   UNL     1     -40.630 -53.546  10.390  1.00  0.00     0.209 HD
ENDBRANCH  24  25
ENDBRANCH   1  24
TORSDOF 8
ENDMDL
MODEL 8
REMARK VINA RESULT:      -5.9      2.684      6.530
REMARK  8 active torsions:
REMARK  status: ('A' for Active; 'I' for Inactive)
REMARK    1  A    between atoms: O_1  and  C_2 
REMARK    2  A    between atoms: C_2  and  C_3 
REMARK    3  A    between atoms: N_12  and  C_13 
REMARK    4  A    between atoms: C_13  and  C_14 
REMARK    5  A    between atoms: C_14  and  O_15 
REMARK    6  A    between atoms: C_14  and  C_16 
REMARK    7  A    between atoms: C_16  and  O_17 
REMARK    8  A    between atoms: O_17  and  C_18 
ROOT
HETATM    1  C   UNL     1     -43.800 -50.839  13.510  1.00  0.00     0.108 A 
HETATM    2  N   UNL     1     -44.880 -50.917  14.266  1.00  0.00    -0.342 N 
ATOM      3  HN  UNL     1     -45.338 -50.152  14.761  1.00  0.00     0.167 HD
HETATM    4  C   UNL     1     -45.259 -52.231  14.252  1.00  0.00     0.060 A 
HETATM    5  C   UNL     1     -46.373 -52.835  14.855  1.00  0.00     0.032 A 
HETATM    6  C   UNL     1     -46.563 -54.210  14.696  1.00  0.00     0.002 A 
HETATM    7  C   UNL     1     -45.655 -54.971  13.959  1.00  0.00     0.002 A 
HETATM    8  C   UNL     1     -44.536 -54.385  13.353  1.00  0.00     0.032 A 
HETATM    9  C   UNL     1     -44.366 -53.002  13.515  1.00  0.00     0.062 A 
HETATM   10  N   UNL     1     -43.424 -52.096  13.068  1.00  0.00    -0.330 N 
ENDROOT
BRANCH  10  11
HETATM   11  C   UNL     1     -42.284 -52.408  12.222  1.00  0.00     0.164 C 
BRANCH  11  12
HETATM   12  C   UNL     1     -41.192 -53.248  12.903  1.00  0.00     0.160 C 
BRANCH  12  13
HETATM   13  O   UNL     1     -40.567 -54.124  11.957  1.00  0.00    -0.392 OA
HETATM   14  H   UNL     1     -40.752 -53.780  11.064  1.00  0.00     0.210 HD
ENDBRANCH  12  13
BRANCH  12  15
HETATM   15  C   UNL     1     -40.148 -52.400  13.644  1.00  0.00     0.209 C 
BRANCH  15  16
HETATM   16  O   UNL     1     -39.297 -51.782  12.671  1.00  0.00    -0.345 OA
BRANCH  16  17
HETATM   17  C   UNL     1     -39.221 -50.416  12.692  1.00  0.00     0.107 A 
HETATM   18  C   UNL     1     -38.551 -49.894  13.804  1.00  0.00     0.040 A 
HETATM   19  C   UNL     1     -38.409 -48.513  13.967  1.00  0.00     0.003 A 
HETATM   20  C   UNL     1     -38.943 -47.641  13.023  1.00  0.00     0.003 A 
HETATM   21  C   UNL     1     -39.606 -48.148  11.909  1.00  0.00     0.045 A 
HETATM   22  C   UNL     1     -39.742 -49.527  11.748  1.00  0.00     0.149 A 
HETATM   23  F   UNL     1     -40.395 -49.960  10.661  1.00  0.00    -0.203 F 
ENDBRANCH  16  17
ENDBRANCH  15  16
ENDBRANCH  12  15
ENDBRANCH  11  12
ENDBRANCH  10  11
BRANCH   1  24
HETATM   24  C   UNL     1     -43.093 -49.566  13.190  1.00  0.00     0.240 C 
BRANCH  24  25
HETATM   25  O   UNL     1     -43.543 -49.119  11.918  1.00  0.00    -0.393 OA
HETATM   26  H   UNL     1     -43.216 -48.209  11.822  1.00  0.00     0.209 HD
ENDBRANCH  24  25
ENDBRANCH   1  24
TORSDOF 8
ENDMDL
MODEL 9
REMARK VINA RESULT:      -5.8      2.562      4.337
REMARK  8 active torsions:
REMARK  status: ('A' for Active; 'I' for Inactive)
REMARK    1  A    between atoms: O_1  and  C_2 
REMARK    2  A    between atoms: C_2  and  C_3 
REMARK    3  A    between atoms: N_12  and  C_13 
REMARK    4  A    between atoms: C_13  and  C_14 
REMARK    5  A    between atoms: C_14  and  O_15 
REMARK    6  A    between atoms: C_14  and  C_16 
REMARK    7  A    between atoms: C_16  and  O_17 
REMARK    8  A    between atoms: O_17  and  C_18 
ROOT
HETATM    1  C   UNL     1     -42.671 -50.397  12.975  1.00  0.00     0.108 A 
HETATM    2  N   UNL     1     -43.920 -50.521  12.565  1.00  0.00    -0.342 N 
ATOM      3  HN  UNL     1     -44.271 -50.381  11.618  1.00  0.00     0.167 HD
HETATM    4  C   UNL     1     -44.648 -50.876  13.667  1.00  0.00     0.060 A 
HETATM    5  C   UNL     1     -46.014 -51.178  13.762  1.00  0.00     0.032 A 
HETATM    6  C   UNL     1     -46.544 -51.526  15.008  1.00  0.00     0.002 A 
HETATM    7  C   UNL     1     -45.728 -51.561  16.140  1.00  0.00     0.002 A 
HETATM    8  C   UNL     1     -44.362 -51.259  16.063  1.00  0.00     0.032 A 
HETATM    9  C   UNL     1     -43.846 -50.922  14.804  1.00  0.00     0.062 A 
HETATM   10  N   UNL     1     -42.588 -50.587  14.344  1.00  0.00    -0.330 N 
ENDROOT
BRANCH  10  11
HETATM   11  C   UNL     1     -41.381 -50.522  15.152  1.00  0.00     0.164 C 
BRANCH  11  12
HETATM   12  C   UNL     1     -40.450 -51.737  15.012  1.00  0.00     0.160 C 
BRANCH  12  13
HETATM   13  O   UNL     1     -39.102 -51.379  15.343  1.00  0.00    -0.392 OA
HETATM   14  H   UNL     1     -38.734 -52.088  15.902  1.00  0.00     0.210 HD
ENDBRANCH  12  13
BRANCH  12  15
HETATM   15  C   UNL     1     -40.914 -52.954  15.824  1.00  0.00     0.209 C 
BRANCH  15  16
HETATM   16  O   UNL     1     -41.133 -54.043  14.918  1.00  0.00    -0.345 OA
BRANCH  16  17
HETATM   17  C   UNL     1     -42.421 -54.268  14.519  1.00  0.00     0.107 A 
HETATM   18  C   UNL     1     -42.659 -54.003  13.165  1.00  0.00     0.040 A 
HETATM   19  C   UNL     1     -43.934 -54.173  12.618  1.00  0.00     0.003 A 
HETATM   20  C   UNL     1     -44.985 -54.605  13.422  1.00  0.00     0.003 A 
HETATM   21  C   UNL     1     -44.761 -54.878  14.768  1.00  0.00     0.045 A 
HETATM   22  C   UNL     1     -43.486 -54.710  15.309  1.00  0.00     0.149 A 
HETATM   23  F   UNL     1     -43.327 -54.983  16.612  1.00  0.00    -0.203 F 
ENDBRANCH  16  17
ENDBRANCH  15  16
ENDBRANCH  12  15
ENDBRANCH  11  12
ENDBRANCH  10  11
BRANCH   1  24
HETATM   24  C   UNL     1     -41.522 -50.090  12.076  1.00  0.00     0.240 C 
BRANCH  24  25
HETATM   25  O   UNL     1     -41.181 -51.278  11.373  1.00  0.00    -0.393 OA
HETATM   26  H   UNL     1     -40.360 -51.603  11.777  1.00  0.00     0.209 HD
ENDBRANCH  24  25
ENDBRANCH   1  24
TORSDOF 8
ENDMDL
