MODEL 1
REMARK VINA RESULT:      -7.1      0.000      0.000
REMARK  6 active torsions:
REMARK  status: ('A' for Active; 'I' for Inactive)
REMARK    1  A    between atoms: C_2  and  C_5 
REMARK    2  A    between atoms: N_10  and  C_11 
REMARK    3  A    between atoms: C_11  and  C_12 
REMARK       I    between atoms: C_12  and  N_14 
REMARK    4  A    between atoms: N_14  and  C_15 
REMARK    5  A    between atoms: C_15  and  C_16 
REMARK    6  A    between atoms: C_16  and  C_17 
ROOT
HETATM    1  C   UNL     1     -42.070 -48.046  10.918  1.00  0.00     0.234 C 
ENDROOT
BRANCH   1   2
HETATM    2  N   UNL     1     -43.179 -47.345  10.280  1.00  0.00    -0.315 N 
HETATM    3  C   UNL     1     -42.951 -46.044   9.847  1.00  0.00     0.247 A 
HETATM    4  C   UNL     1     -44.045 -45.424   9.053  1.00  0.00     0.075 A 
HETATM    5  O   UNL     1     -41.916 -45.415  10.052  1.00  0.00    -0.268 OA
HETATM    6  C   UNL     1     -45.170 -46.106   8.802  1.00  0.00     0.023 A 
HETATM    7  C   UNL     1     -45.358 -47.455   9.308  1.00  0.00     0.063 A 
HETATM    8  C   UNL     1     -44.372 -48.013  10.034  1.00  0.00     0.110 A 
BRANCH   7   9
HETATM    9  C   UNL     1     -46.609 -48.212   8.952  1.00  0.00     0.418 C 
HETATM   10  F   UNL     1     -47.730 -47.445   9.017  1.00  0.00    -0.166 F 
HETATM   11  F   UNL     1     -46.814 -49.274   9.771  1.00  0.00    -0.166 F 
HETATM   12  F   UNL     1     -46.550 -48.698   7.684  1.00  0.00    -0.166 F 
ENDBRANCH   7   9
ENDBRANCH   1   2
BRANCH   1  13
HETATM   13  C   UNL     1     -42.474 -48.824  12.166  1.00  0.00     0.235 C 
HETATM   14  O   UNL     1     -42.769 -48.247  13.213  1.00  0.00    -0.272 OA
HETATM   15  N   UNL     1     -42.495 -50.203  12.042  1.00  0.00    -0.359 N 
HETATM   16  H   UNL     1     -42.148 -50.641  11.193  1.00  0.00     0.162 HD
BRANCH  15  17
HETATM   17  C   UNL     1     -43.047 -50.999  13.123  1.00  0.00     0.127 C 
BRANCH  17  18
HETATM   18  C   UNL     1     -44.547 -51.300  13.031  1.00  0.00     0.053 C 
BRANCH  18  19
HETATM   19  C   UNL     1     -45.243 -51.137  14.378  1.00  0.00    -0.082 A 
HETATM   20  C   UNL     1     -46.510 -51.536  14.563  1.00  0.00    -0.024 A 
HETATM   21  C   UNL     1     -47.265 -51.428  15.845  1.00  0.00     0.027 A 
HETATM   22  C   UNL     1     -46.549 -50.791  17.034  1.00  0.00     0.004 A 
HETATM   23  C   UNL     1     -45.098 -50.360  16.856  1.00  0.00     0.005 A 
HETATM   24  C   UNL     1     -44.444 -50.506  15.484  1.00  0.00     0.034 A 
ENDBRANCH  18  19
ENDBRANCH  17  18
ENDBRANCH  15  17
ENDBRANCH   1  13
TORSDOF 6
ENDMDL
MODEL 2
REMARK VINA RESULT:      -6.8      1.156      1.838
REMARK  6 active torsions:
REMARK  status: ('A' for Active; 'I' for Inactive)
REMARK    1  A    between atoms: C_2  and  C_5 
REMARK    2  A    between atoms: N_10  and  C_11 
REMARK    3  A    between atoms: C_11  and  C_12 
REMARK       I    between atoms: C_12  and  N_14 
REMARK    4  A    between atoms: N_14  and  C_15 
REMARK    5  A    between atoms: C_15  and  C_16 
REMARK    6  A    between atoms: C_16  and  C_17 
ROOT
HETATM    1  C   UNL     1     -42.417 -47.887  12.029  1.00  0.00     0.234 C 
ENDROOT
BRANCH   1   2
HETATM    2  N   UNL     1     -43.169 -47.317  10.916  1.00  0.00    -0.315 N 
HETATM    3  C   UNL     1     -42.553 -46.317  10.171  1.00  0.00     0.247 A 
HETATM    4  C   UNL     1     -43.278 -45.882   8.947  1.00  0.00     0.075 A 
HETATM    5  O   UNL     1     -41.467 -45.815  10.446  1.00  0.00    -0.268 OA
HETATM    6  C   UNL     1     -44.453 -46.436   8.622  1.00  0.00     0.023 A 
HETATM    7  C   UNL     1     -45.057 -47.459   9.459  1.00  0.00     0.063 A 
HETATM    8  C   UNL     1     -44.406 -47.846  10.572  1.00  0.00     0.110 A 
BRANCH   7   9
HETATM    9  C   UNL     1     -46.347 -48.103   9.028  1.00  0.00     0.418 C 
HETATM   10  F   UNL     1     -46.298 -48.589   7.760  1.00  0.00    -0.166 F 
HETATM   11  F   UNL     1     -47.390 -47.237   9.075  1.00  0.00    -0.166 F 
HETATM   12  F   UNL     1     -46.669 -49.152   9.829  1.00  0.00    -0.166 F 
ENDBRANCH   7   9
ENDBRANCH   1   2
BRANCH   1  13
HETATM   13  C   UNL     1     -41.934 -49.311  11.776  1.00  0.00     0.235 C 
HETATM   14  O   UNL     1     -40.936 -49.537  11.091  1.00  0.00    -0.272 OA
HETATM   15  N   UNL     1     -42.677 -50.318  12.368  1.00  0.00    -0.359 N 
HETATM   16  H   UNL     1     -43.549 -50.094  12.841  1.00  0.00     0.162 HD
BRANCH  15  17
HETATM   17  C   UNL     1     -42.176 -51.680  12.329  1.00  0.00     0.127 C 
BRANCH  17  18
HETATM   18  C   UNL     1     -43.217 -52.781  12.563  1.00  0.00     0.053 C 
BRANCH  18  19
HETATM   19  C   UNL     1     -44.342 -52.313  13.480  1.00  0.00    -0.082 A 
HETATM   20  C   UNL     1     -44.154 -52.174  14.801  1.00  0.00    -0.024 A 
HETATM   21  C   UNL     1     -45.190 -51.711  15.770  1.00  0.00     0.027 A 
HETATM   22  C   UNL     1     -46.580 -51.397  15.221  1.00  0.00     0.004 A 
HETATM   23  C   UNL     1     -46.807 -51.517  13.718  1.00  0.00     0.005 A 
HETATM   24  C   UNL     1     -45.667 -52.022  12.835  1.00  0.00     0.034 A 
ENDBRANCH  18  19
ENDBRANCH  17  18
ENDBRANCH  15  17
ENDBRANCH   1  13
TORSDOF 6
ENDMDL
MODEL 3
REMARK VINA RESULT:      -6.5      3.794      4.950
REMARK  6 active torsions:
REMARK  status: ('A' for Active; 'I' for Inactive)
REMARK    1  A    between atoms: C_2  and  C_5 
REMARK    2  A    between atoms: N_10  and  C_11 
REMARK    3  A    between atoms: C_11  and  C_12 
REMARK       I    between atoms: C_12  and  N_14 
REMARK    4  A    between atoms: N_14  and  C_15 
REMARK    5  A    between atoms: C_15  and  C_16 
REMARK    6  A    between atoms: C_16  and  C_17 
ROOT
HETATM    1  C   UNL     1     -41.174 -52.516  11.855  1.00  0.00     0.234 C 
ENDROOT
BRANCH   1   2
HETATM    2  N   UNL     1     -40.565 -51.214  12.107  1.00  0.00    -0.315 N 
HETATM    3  C   UNL     1     -39.345 -51.195  12.773  1.00  0.00     0.247 A 
HETATM    4  C   UNL     1     -38.675 -49.870  12.860  1.00  0.00     0.075 A 
HETATM    5  O   UNL     1     -38.798 -52.186  13.249  1.00  0.00    -0.268 OA
HETATM    6  C   UNL     1     -39.250 -48.784  12.327  1.00  0.00     0.023 A 
HETATM    7  C   UNL     1     -40.542 -48.866  11.667  1.00  0.00     0.063 A 
HETATM    8  C   UNL     1     -41.152 -50.064  11.596  1.00  0.00     0.110 A 
BRANCH   7   9
HETATM    9  C   UNL     1     -41.125 -47.637  11.024  1.00  0.00     0.418 C 
HETATM   10  F   UNL     1     -40.183 -46.713  10.695  1.00  0.00    -0.166 F 
HETATM   11  F   UNL     1     -42.019 -47.014  11.832  1.00  0.00    -0.166 F 
HETATM   12  F   UNL     1     -41.780 -47.943   9.873  1.00  0.00    -0.166 F 
ENDBRANCH   7   9
ENDBRANCH   1   2
BRANCH   1  13
HETATM   13  C   UNL     1     -42.405 -52.792  12.713  1.00  0.00     0.235 C 
HETATM   14  O   UNL     1     -42.330 -52.848  13.941  1.00  0.00    -0.272 OA
HETATM   15  N   UNL     1     -43.596 -52.963  12.028  1.00  0.00    -0.359 N 
HETATM   16  H   UNL     1     -43.596 -53.008  11.013  1.00  0.00     0.162 HD
BRANCH  15  17
HETATM   17  C   UNL     1     -44.836 -53.042  12.780  1.00  0.00     0.127 C 
BRANCH  17  18
HETATM   18  C   UNL     1     -45.606 -51.726  12.935  1.00  0.00     0.053 C 
BRANCH  18  19
HETATM   19  C   UNL     1     -45.775 -51.336  14.399  1.00  0.00    -0.082 A 
HETATM   20  C   UNL     1     -44.787 -50.735  15.080  1.00  0.00    -0.024 A 
HETATM   21  C   UNL     1     -44.866 -50.307  16.507  1.00  0.00     0.027 A 
HETATM   22  C   UNL     1     -46.162 -50.598  17.260  1.00  0.00     0.004 A 
HETATM   23  C   UNL     1     -47.310 -51.250  16.497  1.00  0.00     0.005 A 
HETATM   24  C   UNL     1     -47.094 -51.660  15.042  1.00  0.00     0.034 A 
ENDBRANCH  18  19
ENDBRANCH  17  18
ENDBRANCH  15  17
ENDBRANCH   1  13
TORSDOF 6
ENDMDL
MODEL 4
REMARK VINA RESULT:      -6.5      2.661      3.058
REMARK  6 active torsions:
REMARK  status: ('A' for Active; 'I' for Inactive)
REMARK    1  A    between atoms: C_2  and  C_5 
REMARK    2  A    between atoms: N_10  and  C_11 
REMARK    3  A    between atoms: C_11  and  C_12 
REMARK       I    between atoms: C_12  and  N_14 
REMARK    4  A    between atoms: N_14  and  C_15 
REMARK    5  A    between atoms: C_15  and  C_16 
REMARK    6  A    between atoms: C_16  and  C_17 
ROOT
HETATM    1  C   UNL     1     -42.579 -47.983  12.118  1.00  0.00     0.234 C 
ENDROOT
BRANCH   1   2
HETATM    2  N   UNL     1     -43.310 -47.375  11.011  1.00  0.00    -0.315 N 
HETATM    3  C   UNL     1     -42.696 -46.325  10.338  1.00  0.00     0.247 A 
HETATM    4  C   UNL     1     -43.392 -45.845   9.115  1.00  0.00     0.075 A 
HETATM    5  O   UNL     1     -41.631 -45.813  10.673  1.00  0.00    -0.268 OA
HETATM    6  C   UNL     1     -44.543 -46.408   8.725  1.00  0.00     0.023 A 
HETATM    7  C   UNL     1     -45.148 -47.485   9.490  1.00  0.00     0.063 A 
HETATM    8  C   UNL     1     -44.522 -47.914  10.602  1.00  0.00     0.110 A 
BRANCH   7   9
HETATM    9  C   UNL     1     -46.408 -48.135   8.986  1.00  0.00     0.418 C 
HETATM   10  F   UNL     1     -47.478 -47.295   8.994  1.00  0.00    -0.166 F 
HETATM   11  F   UNL     1     -46.755 -49.218   9.725  1.00  0.00    -0.166 F 
HETATM   12  F   UNL     1     -46.267 -48.562   7.703  1.00  0.00    -0.166 F 
ENDBRANCH   7   9
ENDBRANCH   1   2
BRANCH   1  13
HETATM   13  C   UNL     1     -41.944 -49.326  11.768  1.00  0.00     0.235 C 
HETATM   14  O   UNL     1     -40.932 -49.393  11.071  1.00  0.00    -0.272 OA
HETATM   15  N   UNL     1     -42.570 -50.447  12.288  1.00  0.00    -0.359 N 
HETATM   16  H   UNL     1     -43.457 -50.352  12.773  1.00  0.00     0.162 HD
BRANCH  15  17
HETATM   17  C   UNL     1     -41.922 -51.739  12.156  1.00  0.00     0.127 C 
BRANCH  17  18
HETATM   18  C   UNL     1     -42.805 -52.959  12.440  1.00  0.00     0.053 C 
BRANCH  18  19
HETATM   19  C   UNL     1     -42.298 -53.761  13.634  1.00  0.00    -0.082 A 
HETATM   20  C   UNL     1     -43.133 -54.484  14.395  1.00  0.00    -0.024 A 
HETATM   21  C   UNL     1     -42.726 -55.307  15.571  1.00  0.00     0.027 A 
HETATM   22  C   UNL     1     -41.248 -55.308  15.954  1.00  0.00     0.004 A 
HETATM   23  C   UNL     1     -40.276 -54.519  15.084  1.00  0.00     0.005 A 
HETATM   24  C   UNL     1     -40.824 -53.699  13.917  1.00  0.00     0.034 A 
ENDBRANCH  18  19
ENDBRANCH  17  18
ENDBRANCH  15  17
ENDBRANCH   1  13
TORSDOF 6
ENDMDL
MODEL 5
REMARK VINA RESULT:      -6.4      2.025      2.811
REMARK  6 active torsions:
REMARK  status: ('A' for Active; 'I' for Inactive)
REMARK    1  A    between atoms: C_2  and  C_5 
REMARK    2  A    between atoms: N_10  and  C_11 
REMARK    3  A    between atoms: C_11  and  C_12 
REMARK       I    between atoms: C_12  and  N_14 
REMARK    4  A    between atoms: N_14  and  C_15 
REMARK    5  A    between atoms: C_15  and  C_16 
REMARK    6  A    between atoms: C_16  and  C_17 
ROOT
HETATM    1  C   UNL     1     -40.317 -49.409  11.127  1.00  0.00     0.234 C 
ENDROOT
BRANCH   1   2
HETATM    2  N   UNL     1     -41.099 -48.188  10.959  1.00  0.00    -0.315 N 
HETATM    3  C   UNL     1     -40.598 -47.023  11.529  1.00  0.00     0.247 A 
HETATM    4  C   UNL     1     -41.330 -45.772  11.195  1.00  0.00     0.075 A 
HETATM    5  O   UNL     1     -39.601 -46.972  12.245  1.00  0.00    -0.268 OA
HETATM    6  C   UNL     1     -42.406 -45.809  10.398  1.00  0.00     0.023 A 
HETATM    7  C   UNL     1     -42.895 -47.065   9.856  1.00  0.00     0.063 A 
HETATM    8  C   UNL     1     -42.238 -48.198  10.166  1.00  0.00     0.110 A 
BRANCH   7   9
HETATM    9  C   UNL     1     -44.068 -47.058   8.914  1.00  0.00     0.418 C 
HETATM   10  F   UNL     1     -45.136 -47.750   9.393  1.00  0.00    -0.166 F 
HETATM   11  F   UNL     1     -43.760 -47.600   7.709  1.00  0.00    -0.166 F 
HETATM   12  F   UNL     1     -44.506 -45.793   8.676  1.00  0.00    -0.166 F 
ENDBRANCH   7   9
ENDBRANCH   1   2
BRANCH   1  13
HETATM   13  C   UNL     1     -40.887 -50.362  12.172  1.00  0.00     0.235 C 
HETATM   14  O   UNL     1     -41.076 -49.999  13.334  1.00  0.00    -0.272 OA
HETATM   15  N   UNL     1     -41.183 -51.641  11.731  1.00  0.00    -0.359 N 
HETATM   16  H   UNL     1     -40.919 -51.927  10.793  1.00  0.00     0.162 HD
BRANCH  15  17
HETATM   17  C   UNL     1     -41.899 -52.542  12.615  1.00  0.00     0.127 C 
BRANCH  17  18
HETATM   18  C   UNL     1     -43.330 -52.894  12.192  1.00  0.00     0.053 C 
BRANCH  18  19
HETATM   19  C   UNL     1     -44.364 -52.326  13.158  1.00  0.00    -0.082 A 
HETATM   20  C   UNL     1     -44.031 -51.973  14.409  1.00  0.00    -0.024 A 
HETATM   21  C   UNL     1     -44.971 -51.399  15.416  1.00  0.00     0.027 A 
HETATM   22  C   UNL     1     -46.429 -51.222  15.001  1.00  0.00     0.004 A 
HETATM   23  C   UNL     1     -46.822 -51.586  13.573  1.00  0.00     0.005 A 
HETATM   24  C   UNL     1     -45.769 -52.185  12.643  1.00  0.00     0.034 A 
ENDBRANCH  18  19
ENDBRANCH  17  18
ENDBRANCH  15  17
ENDBRANCH   1  13
TORSDOF 6
ENDMDL
MODEL 6
REMARK VINA RESULT:      -6.3      3.762      5.087
REMARK  6 active torsions:
REMARK  status: ('A' for Active; 'I' for Inactive)
REMARK    1  A    between atoms: C_2  and  C_5 
REMARK    2  A    between atoms: N_10  and  C_11 
REMARK    3  A    between atoms: C_11  and  C_12 
REMARK       I    between atoms: C_12  and  N_14 
REMARK    4  A    between atoms: N_14  and  C_15 
REMARK    5  A    between atoms: C_15  and  C_16 
REMARK    6  A    between atoms: C_16  and  C_17 
ROOT
HETATM    1  C   UNL     1     -40.871 -52.463  12.155  1.00  0.00     0.234 C 
ENDROOT
BRANCH   1   2
HETATM    2  N   UNL     1     -40.340 -51.103  12.162  1.00  0.00    -0.315 N 
HETATM    3  C   UNL     1     -39.036 -50.927  12.610  1.00  0.00     0.247 A 
HETATM    4  C   UNL     1     -38.474 -49.561  12.444  1.00  0.00     0.075 A 
HETATM    5  O   UNL     1     -38.340 -51.817  13.091  1.00  0.00    -0.268 OA
HETATM    6  C   UNL     1     -39.213 -48.584  11.901  1.00  0.00     0.023 A 
HETATM    7  C   UNL     1     -40.582 -48.828  11.478  1.00  0.00     0.063 A 
HETATM    8  C   UNL     1     -41.094 -50.063  11.637  1.00  0.00     0.110 A 
BRANCH   7   9
HETATM    9  C   UNL     1     -41.360 -47.724  10.814  1.00  0.00     0.418 C 
HETATM   10  F   UNL     1     -42.008 -48.133   9.691  1.00  0.00    -0.166 F 
HETATM   11  F   UNL     1     -40.565 -46.686  10.451  1.00  0.00    -0.166 F 
HETATM   12  F   UNL     1     -42.311 -47.220  11.644  1.00  0.00    -0.166 F 
ENDBRANCH   7   9
ENDBRANCH   1   2
BRANCH   1  13
HETATM   13  C   UNL     1     -41.595 -52.844  13.443  1.00  0.00     0.235 C 
HETATM   14  O   UNL     1     -41.954 -51.989  14.253  1.00  0.00    -0.272 OA
HETATM   15  N   UNL     1     -41.826 -54.196  13.632  1.00  0.00    -0.359 N 
HETATM   16  H   UNL     1     -41.426 -54.874  12.989  1.00  0.00     0.162 HD
BRANCH  15  17
HETATM   17  C   UNL     1     -42.669 -54.619  14.736  1.00  0.00     0.127 C 
BRANCH  17  18
HETATM   18  C   UNL     1     -44.109 -54.997  14.368  1.00  0.00     0.053 C 
BRANCH  18  19
HETATM   19  C   UNL     1     -45.003 -53.769  14.237  1.00  0.00    -0.082 A 
HETATM   20  C   UNL     1     -45.363 -53.292  13.036  1.00  0.00    -0.024 A 
HETATM   21  C   UNL     1     -46.243 -52.108  12.813  1.00  0.00     0.027 A 
HETATM   22  C   UNL     1     -46.752 -51.364  14.045  1.00  0.00     0.004 A 
HETATM   23  C   UNL     1     -46.382 -51.908  15.420  1.00  0.00     0.005 A 
HETATM   24  C   UNL     1     -45.456 -53.119  15.514  1.00  0.00     0.034 A 
ENDBRANCH  18  19
ENDBRANCH  17  18
ENDBRANCH  15  17
ENDBRANCH   1  13
TORSDOF 6
ENDMDL
MODEL 7
REMARK VINA RESULT:      -6.2      5.051      6.379
REMARK  6 active torsions:
REMARK  status: ('A' for Active; 'I' for Inactive)
REMARK    1  A    between atoms: C_2  and  C_5 
REMARK    2  A    between atoms: N_10  and  C_11 
REMARK    3  A    between atoms: C_11  and  C_12 
REMARK       I    between atoms: C_12  and  N_14 
REMARK    4  A    between atoms: N_14  and  C_15 
REMARK    5  A    between atoms: C_15  and  C_16 
REMARK    6  A    between atoms: C_16  and  C_17 
ROOT
HETATM    1  C   UNL     1     -41.196 -54.108  12.901  1.00  0.00     0.234 C 
ENDROOT
BRANCH   1   2
HETATM    2  N   UNL     1     -40.393 -52.941  13.252  1.00  0.00    -0.315 N 
HETATM    3  C   UNL     1     -39.585 -53.035  14.380  1.00  0.00     0.247 A 
HETATM    4  C   UNL     1     -38.658 -51.895  14.608  1.00  0.00     0.075 A 
HETATM    5  O   UNL     1     -39.577 -53.990  15.152  1.00  0.00    -0.268 OA
HETATM    6  C   UNL     1     -38.640 -50.856  13.763  1.00  0.00     0.023 A 
HETATM    7  C   UNL     1     -39.531 -50.806  12.616  1.00  0.00     0.063 A 
HETATM    8  C   UNL     1     -40.377 -51.834  12.415  1.00  0.00     0.110 A 
BRANCH   7   9
HETATM    9  C   UNL     1     -39.437 -49.653  11.654  1.00  0.00     0.418 C 
HETATM   10  F   UNL     1     -39.803 -48.468  12.211  1.00  0.00    -0.166 F 
HETATM   11  F   UNL     1     -40.224 -49.833  10.564  1.00  0.00    -0.166 F 
HETATM   12  F   UNL     1     -38.167 -49.488  11.201  1.00  0.00    -0.166 F 
ENDBRANCH   7   9
ENDBRANCH   1   2
BRANCH   1  13
HETATM   13  C   UNL     1     -42.655 -54.000  13.334  1.00  0.00     0.235 C 
HETATM   14  O   UNL     1     -43.005 -54.278  14.481  1.00  0.00    -0.272 OA
HETATM   15  N   UNL     1     -43.545 -53.565  12.366  1.00  0.00    -0.359 N 
HETATM   16  H   UNL     1     -43.231 -53.443  11.407  1.00  0.00     0.162 HD
BRANCH  15  17
HETATM   17  C   UNL     1     -44.910 -53.259  12.751  1.00  0.00     0.127 C 
BRANCH  17  18
HETATM   18  C   UNL     1     -45.247 -51.770  12.886  1.00  0.00     0.053 C 
BRANCH  18  19
HETATM   19  C   UNL     1     -45.561 -51.387  14.327  1.00  0.00    -0.082 A 
HETATM   20  C   UNL     1     -44.634 -50.827  15.119  1.00  0.00    -0.024 A 
HETATM   21  C   UNL     1     -44.855 -50.409  16.534  1.00  0.00     0.027 A 
HETATM   22  C   UNL     1     -46.234 -50.661  17.138  1.00  0.00     0.004 A 
HETATM   23  C   UNL     1     -47.313 -51.267  16.247  1.00  0.00     0.005 A 
HETATM   24  C   UNL     1     -46.953 -51.670  14.818  1.00  0.00     0.034 A 
ENDBRANCH  18  19
ENDBRANCH  17  18
ENDBRANCH  15  17
ENDBRANCH   1  13
TORSDOF 6
ENDMDL
MODEL 8
REMARK VINA RESULT:      -6.2      5.902      7.930
REMARK  6 active torsions:
REMARK  status: ('A' for Active; 'I' for Inactive)
REMARK    1  A    between atoms: C_2  and  C_5 
REMARK    2  A    between atoms: N_10  and  C_11 
REMARK    3  A    between atoms: C_11  and  C_12 
REMARK       I    between atoms: C_12  and  N_14 
REMARK    4  A    between atoms: N_14  and  C_15 
REMARK    5  A    between atoms: C_15  and  C_16 
REMARK    6  A    between atoms: C_16  and  C_17 
ROOT
HETATM    1  C   UNL     1     -43.605 -54.906  17.084  1.00  0.00     0.234 C 
ENDROOT
BRANCH   1   2
HETATM    2  N   UNL     1     -43.094 -54.694  15.733  1.00  0.00    -0.315 N 
HETATM    3  C   UNL     1     -44.019 -54.658  14.697  1.00  0.00     0.247 A 
HETATM    4  C   UNL     1     -43.484 -54.273  13.364  1.00  0.00     0.075 A 
HETATM    5  O   UNL     1     -45.218 -54.890  14.827  1.00  0.00    -0.268 OA
HETATM    6  C   UNL     1     -42.183 -53.996  13.210  1.00  0.00     0.023 A 
HETATM    7  C   UNL     1     -41.261 -54.079  14.331  1.00  0.00     0.063 A 
HETATM    8  C   UNL     1     -41.744 -54.437  15.535  1.00  0.00     0.110 A 
BRANCH   7   9
HETATM    9  C   UNL     1     -39.818 -53.699  14.133  1.00  0.00     0.418 C 
HETATM   10  F   UNL     1     -39.200 -53.347  15.292  1.00  0.00    -0.166 F 
HETATM   11  F   UNL     1     -39.678 -52.653  13.282  1.00  0.00    -0.166 F 
HETATM   12  F   UNL     1     -39.101 -54.730  13.614  1.00  0.00    -0.166 F 
ENDBRANCH   7   9
ENDBRANCH   1   2
BRANCH   1  13
HETATM   13  C   UNL     1     -44.226 -53.659  17.706  1.00  0.00     0.235 C 
HETATM   14  O   UNL     1     -43.539 -52.834  18.309  1.00  0.00    -0.272 OA
HETATM   15  N   UNL     1     -45.593 -53.515  17.540  1.00  0.00    -0.359 N 
HETATM   16  H   UNL     1     -46.135 -54.266  17.123  1.00  0.00     0.162 HD
BRANCH  15  17
HETATM   17  C   UNL     1     -46.223 -52.269  17.938  1.00  0.00     0.127 C 
BRANCH  17  18
HETATM   18  C   UNL     1     -47.034 -51.555  16.850  1.00  0.00     0.053 C 
BRANCH  18  19
HETATM   19  C   UNL     1     -46.207 -51.312  15.592  1.00  0.00    -0.082 A 
HETATM   20  C   UNL     1     -46.662 -51.660  14.379  1.00  0.00    -0.024 A 
HETATM   21  C   UNL     1     -45.930 -51.451  13.096  1.00  0.00     0.027 A 
HETATM   22  C   UNL     1     -44.544 -50.815  13.170  1.00  0.00     0.004 A 
HETATM   23  C   UNL     1     -44.020 -50.382  14.535  1.00  0.00     0.005 A 
HETATM   24  C   UNL     1     -44.860 -50.671  15.778  1.00  0.00     0.034 A 
ENDBRANCH  18  19
ENDBRANCH  17  18
ENDBRANCH  15  17
ENDBRANCH   1  13
TORSDOF 6
ENDMDL
MODEL 9
REMARK VINA RESULT:      -6.2      4.834      6.039
REMARK  6 active torsions:
REMARK  status: ('A' for Active; 'I' for Inactive)
REMARK    1  A    between atoms: C_2  and  C_5 
REMARK    2  A    between atoms: N_10  and  C_11 
REMARK    3  A    between atoms: C_11  and  C_12 
REMARK       I    between atoms: C_12  and  N_14 
REMARK    4  A    between atoms: N_14  and  C_15 
REMARK    5  A    between atoms: C_15  and  C_16 
REMARK    6  A    between atoms: C_16  and  C_17 
ROOT
HETATM    1  C   UNL     1     -38.803 -51.922  14.411  1.00  0.00     0.234 C 
ENDROOT
BRANCH   1   2
HETATM    2  N   UNL     1     -38.608 -50.806  13.490  1.00  0.00    -0.315 N 
HETATM    3  C   UNL     1     -37.625 -50.942  12.517  1.00  0.00     0.247 A 
HETATM    4  C   UNL     1     -37.571 -49.863  11.496  1.00  0.00     0.075 A 
HETATM    5  O   UNL     1     -36.848 -51.890  12.442  1.00  0.00    -0.268 OA
HETATM    6  C   UNL     1     -38.427 -48.834  11.551  1.00  0.00     0.023 A 
HETATM    7  C   UNL     1     -39.415 -48.736  12.613  1.00  0.00     0.063 A 
HETATM    8  C   UNL     1     -39.458 -49.709  13.542  1.00  0.00     0.110 A 
BRANCH   7   9
HETATM    9  C   UNL     1     -40.400 -47.599  12.605  1.00  0.00     0.418 C 
HETATM   10  F   UNL     1     -41.531 -47.873  13.309  1.00  0.00    -0.166 F 
HETATM   11  F   UNL     1     -40.791 -47.270  11.349  1.00  0.00    -0.166 F 
HETATM   12  F   UNL     1     -39.867 -46.478  13.158  1.00  0.00    -0.166 F 
ENDBRANCH   7   9
ENDBRANCH   1   2
BRANCH   1  13
HETATM   13  C   UNL     1     -39.620 -53.067  13.821  1.00  0.00     0.235 C 
HETATM   14  O   UNL     1     -39.097 -54.141  13.524  1.00  0.00    -0.272 OA
HETATM   15  N   UNL     1     -40.973 -52.823  13.652  1.00  0.00    -0.359 N 
HETATM   16  H   UNL     1     -41.344 -51.891  13.816  1.00  0.00     0.162 HD
BRANCH  15  17
HETATM   17  C   UNL     1     -41.845 -53.920  13.274  1.00  0.00     0.127 C 
BRANCH  17  18
HETATM   18  C   UNL     1     -42.989 -54.228  14.247  1.00  0.00     0.053 C 
BRANCH  18  19
HETATM   19  C   UNL     1     -44.175 -53.292  14.043  1.00  0.00    -0.082 A 
HETATM   20  C   UNL     1     -44.577 -52.454  15.011  1.00  0.00    -0.024 A 
HETATM   21  C   UNL     1     -45.716 -51.496  14.897  1.00  0.00     0.027 A 
HETATM   22  C   UNL     1     -46.501 -51.486  13.587  1.00  0.00     0.004 A 
HETATM   23  C   UNL     1     -46.042 -52.407  12.463  1.00  0.00     0.005 A 
HETATM   24  C   UNL     1     -44.872 -53.356  12.713  1.00  0.00     0.034 A 
ENDBRANCH  18  19
ENDBRANCH  17  18
ENDBRANCH  15  17
ENDBRANCH   1  13
TORSDOF 6
ENDMDL
