MODEL 1
REMARK VINA RESULT:      -5.5      0.000      0.000
REMARK  4 active torsions:
REMARK  status: ('A' for Active; 'I' for Inactive)
REMARK    1  A    between atoms: C_2  and  C_4 
REMARK       I    between atoms: C_4  and  N_6 
REMARK    2  A    between atoms: N_6  and  C_7 
REMARK    3  A    between atoms: C_7  and  C_8 
REMARK    4  A    between atoms: C_14  and  N_15 
ROOT
HETATM    1  C   UNL     1     -41.459 -52.864  13.171  1.00  0.00     0.004 A 
HETATM    2  C   UNL     1     -41.383 -54.128  13.780  1.00  0.00     0.014 A 
HETATM    3  C   UNL     1     -40.374 -54.400  14.690  1.00  0.00     0.018 A 
HETATM    4  C   UNL     1     -39.485 -53.385  14.975  1.00  0.00     0.089 A 
HETATM    5  N   UNL     1     -39.545 -52.150  14.431  1.00  0.00    -0.352 N 
ATOM      6  HN  UNL     1     -38.867 -51.435  14.694  1.00  0.00     0.166 HD
HETATM    7  C   UNL     1     -40.519 -51.875  13.531  1.00  0.00     0.111 A 
ENDROOT
BRANCH   1   8
HETATM    8  C   UNL     1     -42.492 -52.665  12.092  1.00  0.00     0.165 C 
BRANCH   8   9
HETATM    9  N   UNL     1     -43.762 -52.211  12.621  1.00  0.00    -0.356 N 
HETATM   10  C   UNL     1     -44.837 -53.068  12.662  1.00  0.00     0.221 C 
HETATM   11  O   UNL     1     -44.741 -54.251  12.352  1.00  0.00    -0.273 OA
HETATM   12  H   UNL     1     -43.904 -51.217  12.739  1.00  0.00     0.162 HD
BRANCH  10  13
HETATM   13  C   UNL     1     -46.160 -52.413  13.057  1.00  0.00     0.070 C 
HETATM   14  C   UNL     1     -45.932 -51.394  14.174  1.00  0.00     0.019 C 
HETATM   15  C   UNL     1     -46.830 -51.742  11.862  1.00  0.00     0.019 C 
ENDBRANCH  10  13
ENDBRANCH   8   9
ENDBRANCH   1   8
BRANCH   7  16
HETATM   16  N   UNL     1     -40.523 -50.618  12.961  1.00  0.00    -0.363 N 
HETATM   17  C   UNL     1     -39.535 -50.300  11.920  1.00  0.00     0.150 C 
HETATM   18  C   UNL     1     -38.575 -49.185  12.357  1.00  0.00     0.187 C 
HETATM   19  O   UNL     1     -39.287 -48.028  12.823  1.00  0.00    -0.388 OA
HETATM   20  C   UNL     1     -40.066 -48.381  13.970  1.00  0.00     0.187 C 
HETATM   21  C   UNL     1     -41.110 -49.457  13.645  1.00  0.00     0.150 C 
ENDBRANCH   7  16
TORSDOF 4
ENDMDL
MODEL 2
REMARK VINA RESULT:      -5.2      2.317      6.289
REMARK  4 active torsions:
REMARK  status: ('A' for Active; 'I' for Inactive)
REMARK    1  A    between atoms: C_2  and  C_4 
REMARK       I    between atoms: C_4  and  N_6 
REMARK    2  A    between atoms: N_6  and  C_7 
REMARK    3  A    between atoms: C_7  and  C_8 
REMARK    4  A    between atoms: C_14  and  N_15 
ROOT
HETATM    1  C   UNL     1     -42.107 -51.192  13.011  1.00  0.00     0.004 A 
HETATM    2  C   UNL     1     -42.145 -49.795  13.159  1.00  0.00     0.014 A 
HETATM    3  C   UNL     1     -43.061 -49.214  14.021  1.00  0.00     0.018 A 
HETATM    4  C   UNL     1     -43.897 -50.056  14.722  1.00  0.00     0.089 A 
HETATM    5  N   UNL     1     -43.870 -51.404  14.625  1.00  0.00    -0.352 N 
ATOM      6  HN  UNL     1     -44.504 -51.976  15.182  1.00  0.00     0.166 HD
HETATM    7  C   UNL     1     -42.987 -51.984  13.777  1.00  0.00     0.111 A 
ENDROOT
BRANCH   1   8
HETATM    8  C   UNL     1     -41.185 -51.762  11.963  1.00  0.00     0.165 C 
BRANCH   8   9
HETATM    9  N   UNL     1     -39.919 -51.062  11.904  1.00  0.00    -0.356 N 
HETATM   10  C   UNL     1     -38.884 -51.440  12.728  1.00  0.00     0.221 C 
HETATM   11  O   UNL     1     -38.956 -52.423  13.458  1.00  0.00    -0.273 OA
HETATM   12  H   UNL     1     -39.885 -50.171  11.427  1.00  0.00     0.162 HD
BRANCH  10  13
HETATM   13  C   UNL     1     -37.676 -50.503  12.705  1.00  0.00     0.070 C 
HETATM   14  C   UNL     1     -37.528 -49.865  11.324  1.00  0.00     0.019 C 
HETATM   15  C   UNL     1     -37.789 -49.421  13.775  1.00  0.00     0.019 C 
ENDBRANCH  10  13
ENDBRANCH   8   9
ENDBRANCH   1   8
BRANCH   7  16
HETATM   16  N   UNL     1     -43.018 -53.360  13.671  1.00  0.00    -0.363 N 
HETATM   17  C   UNL     1     -44.215 -54.009  13.116  1.00  0.00     0.150 C 
HETATM   18  C   UNL     1     -44.912 -54.908  14.145  1.00  0.00     0.187 C 
HETATM   19  O   UNL     1     -43.995 -55.842  14.739  1.00  0.00    -0.388 OA
HETATM   20  C   UNL     1     -42.973 -55.123  15.436  1.00  0.00     0.187 C 
HETATM   21  C   UNL     1     -42.162 -54.222  14.497  1.00  0.00     0.150 C 
ENDBRANCH   7  16
TORSDOF 4
ENDMDL
MODEL 3
REMARK VINA RESULT:      -5.2      3.102      4.071
REMARK  4 active torsions:
REMARK  status: ('A' for Active; 'I' for Inactive)
REMARK    1  A    between atoms: C_2  and  C_4 
REMARK       I    between atoms: C_4  and  N_6 
REMARK    2  A    between atoms: N_6  and  C_7 
REMARK    3  A    between atoms: C_7  and  C_8 
REMARK    4  A    between atoms: C_14  and  N_15 
ROOT
HETATM    1  C   UNL     1     -42.008 -49.522  12.664  1.00  0.00     0.004 A 
HETATM    2  C   UNL     1     -41.120 -50.591  12.873  1.00  0.00     0.014 A 
HETATM    3  C   UNL     1     -39.947 -50.672  12.140  1.00  0.00     0.018 A 
HETATM    4  C   UNL     1     -39.693 -49.665  11.233  1.00  0.00     0.089 A 
HETATM    5  N   UNL     1     -40.510 -48.609  11.026  1.00  0.00    -0.352 N 
ATOM      6  HN  UNL     1     -40.260 -47.886  10.351  1.00  0.00     0.166 HD
HETATM    7  C   UNL     1     -41.665 -48.523  11.728  1.00  0.00     0.111 A 
ENDROOT
BRANCH   1   8
HETATM    8  C   UNL     1     -43.328 -49.553  13.390  1.00  0.00     0.165 C 
BRANCH   8   9
HETATM    9  N   UNL     1     -44.216 -50.574  12.875  1.00  0.00    -0.356 N 
HETATM   10  C   UNL     1     -45.094 -51.213  13.721  1.00  0.00     0.221 C 
HETATM   11  O   UNL     1     -45.226 -50.884  14.896  1.00  0.00    -0.273 OA
HETATM   12  H   UNL     1     -44.025 -50.960  11.961  1.00  0.00     0.162 HD
BRANCH  10  13
HETATM   13  C   UNL     1     -45.832 -52.397  13.098  1.00  0.00     0.070 C 
HETATM   14  C   UNL     1     -46.806 -51.907  12.025  1.00  0.00     0.019 C 
HETATM   15  C   UNL     1     -44.860 -53.410  12.501  1.00  0.00     0.019 C 
ENDBRANCH  10  13
ENDBRANCH   8   9
ENDBRANCH   1   8
BRANCH   7  16
HETATM   16  N   UNL     1     -42.496 -47.454  11.458  1.00  0.00    -0.363 N 
HETATM   17  C   UNL     1     -43.413 -47.531  10.312  1.00  0.00     0.150 C 
HETATM   18  C   UNL     1     -43.092 -46.476   9.245  1.00  0.00     0.187 C 
HETATM   19  O   UNL     1     -43.016 -45.158   9.811  1.00  0.00    -0.388 OA
HETATM   20  C   UNL     1     -41.956 -45.117  10.772  1.00  0.00     0.187 C 
HETATM   21  C   UNL     1     -42.192 -46.096  11.928  1.00  0.00     0.150 C 
ENDBRANCH   7  16
TORSDOF 4
ENDMDL
MODEL 4
REMARK VINA RESULT:      -5.2      1.890      3.184
REMARK  4 active torsions:
REMARK  status: ('A' for Active; 'I' for Inactive)
REMARK    1  A    between atoms: C_2  and  C_4 
REMARK       I    between atoms: C_4  and  N_6 
REMARK    2  A    between atoms: N_6  and  C_7 
REMARK    3  A    between atoms: C_7  and  C_8 
REMARK    4  A    between atoms: C_14  and  N_15 
ROOT
HETATM    1  C   UNL     1     -42.222 -49.946  13.357  1.00  0.00     0.004 A 
HETATM    2  C   UNL     1     -43.066 -49.070  14.061  1.00  0.00     0.014 A 
HETATM    3  C   UNL     1     -42.543 -47.935  14.658  1.00  0.00     0.018 A 
HETATM    4  C   UNL     1     -41.191 -47.705  14.514  1.00  0.00     0.089 A 
HETATM    5  N   UNL     1     -40.356 -48.511  13.821  1.00  0.00    -0.352 N 
ATOM      6  HN  UNL     1     -39.366 -48.280  13.736  1.00  0.00     0.166 HD
HETATM    7  C   UNL     1     -40.852 -49.630  13.242  1.00  0.00     0.111 A 
ENDROOT
BRANCH   1   8
HETATM    8  C   UNL     1     -42.817 -51.232  12.841  1.00  0.00     0.165 C 
BRANCH   8   9
HETATM    9  N   UNL     1     -44.242 -51.317  13.087  1.00  0.00    -0.356 N 
HETATM   10  C   UNL     1     -44.947 -52.423  12.672  1.00  0.00     0.221 C 
HETATM   11  O   UNL     1     -44.396 -53.401  12.176  1.00  0.00    -0.273 OA
HETATM   12  H   UNL     1     -44.734 -50.475  13.353  1.00  0.00     0.162 HD
BRANCH  10  13
HETATM   13  C   UNL     1     -46.464 -52.303  12.816  1.00  0.00     0.070 C 
HETATM   14  C   UNL     1     -46.813 -51.454  14.039  1.00  0.00     0.019 C 
HETATM   15  C   UNL     1     -47.099 -51.707  11.564  1.00  0.00     0.019 C 
ENDBRANCH  10  13
ENDBRANCH   8   9
ENDBRANCH   1   8
BRANCH   7  16
HETATM   16  N   UNL     1     -39.962 -50.452  12.581  1.00  0.00    -0.363 N 
HETATM   17  C   UNL     1     -39.261 -51.502  13.335  1.00  0.00     0.150 C 
HETATM   18  C   UNL     1     -37.744 -51.277  13.360  1.00  0.00     0.187 C 
HETATM   19  O   UNL     1     -37.214 -51.092  12.038  1.00  0.00    -0.388 OA
HETATM   20  C   UNL     1     -37.800 -49.925  11.453  1.00  0.00     0.187 C 
HETATM   21  C   UNL     1     -39.322 -50.051  11.321  1.00  0.00     0.150 C 
ENDBRANCH   7  16
TORSDOF 4
ENDMDL
MODEL 5
REMARK VINA RESULT:      -5.2      1.998      5.776
REMARK  4 active torsions:
REMARK  status: ('A' for Active; 'I' for Inactive)
REMARK    1  A    between atoms: C_2  and  C_4 
REMARK       I    between atoms: C_4  and  N_6 
REMARK    2  A    between atoms: N_6  and  C_7 
REMARK    3  A    between atoms: C_7  and  C_8 
REMARK    4  A    between atoms: C_14  and  N_15 
ROOT
HETATM    1  C   UNL     1     -41.303 -53.507  13.369  1.00  0.00     0.004 A 
HETATM    2  C   UNL     1     -39.975 -53.866  13.656  1.00  0.00     0.014 A 
HETATM    3  C   UNL     1     -39.685 -54.595  14.799  1.00  0.00     0.018 A 
HETATM    4  C   UNL     1     -40.742 -54.955  15.608  1.00  0.00     0.089 A 
HETATM    5  N   UNL     1     -42.033 -54.650  15.349  1.00  0.00    -0.352 N 
ATOM      6  HN  UNL     1     -42.774 -54.959  15.978  1.00  0.00     0.166 HD
HETATM    7  C   UNL     1     -42.328 -53.930  14.241  1.00  0.00     0.111 A 
ENDROOT
BRANCH   1   8
HETATM    8  C   UNL     1     -41.546 -52.604  12.187  1.00  0.00     0.165 C 
BRANCH   8   9
HETATM    9  N   UNL     1     -40.403 -51.765  11.890  1.00  0.00    -0.356 N 
HETATM   10  C   UNL     1     -40.486 -50.403  12.064  1.00  0.00     0.221 C 
HETATM   11  O   UNL     1     -41.472 -49.865  12.558  1.00  0.00    -0.273 OA
HETATM   12  H   UNL     1     -39.645 -52.160  11.350  1.00  0.00     0.162 HD
BRANCH  10  13
HETATM   13  C   UNL     1     -39.286 -49.618  11.533  1.00  0.00     0.070 C 
HETATM   14  C   UNL     1     -39.336 -48.174  12.034  1.00  0.00     0.019 C 
HETATM   15  C   UNL     1     -37.968 -50.270  11.940  1.00  0.00     0.019 C 
ENDBRANCH  10  13
ENDBRANCH   8   9
ENDBRANCH   1   8
BRANCH   7  16
HETATM   16  N   UNL     1     -43.652 -53.599  14.032  1.00  0.00    -0.363 N 
HETATM   17  C   UNL     1     -44.343 -52.752  15.015  1.00  0.00     0.150 C 
HETATM   18  C   UNL     1     -45.503 -53.490  15.696  1.00  0.00     0.187 C 
HETATM   19  O   UNL     1     -46.398 -54.071  14.734  1.00  0.00    -0.388 OA
HETATM   20  C   UNL     1     -45.688 -55.038  13.953  1.00  0.00     0.187 C 
HETATM   21  C   UNL     1     -44.528 -54.407  13.173  1.00  0.00     0.150 C 
ENDBRANCH   7  16
TORSDOF 4
ENDMDL
MODEL 6
REMARK VINA RESULT:      -5.1      3.637      5.082
REMARK  4 active torsions:
REMARK  status: ('A' for Active; 'I' for Inactive)
REMARK    1  A    between atoms: C_2  and  C_4 
REMARK       I    between atoms: C_4  and  N_6 
REMARK    2  A    between atoms: N_6  and  C_7 
REMARK    3  A    between atoms: C_7  and  C_8 
REMARK    4  A    between atoms: C_14  and  N_15 
ROOT
HETATM    1  C   UNL     1     -42.349 -54.541  14.512  1.00  0.00     0.004 A 
HETATM    2  C   UNL     1     -42.116 -54.029  13.224  1.00  0.00     0.014 A 
HETATM    3  C   UNL     1     -40.830 -53.695  12.833  1.00  0.00     0.018 A 
HETATM    4  C   UNL     1     -39.814 -53.905  13.742  1.00  0.00     0.089 A 
HETATM    5  N   UNL     1     -39.998 -54.421  14.978  1.00  0.00    -0.352 N 
ATOM      6  HN  UNL     1     -39.204 -54.568  15.600  1.00  0.00     0.166 HD
HETATM    7  C   UNL     1     -41.252 -54.741  15.376  1.00  0.00     0.111 A 
ENDROOT
BRANCH   1   8
HETATM    8  C   UNL     1     -43.780 -54.762  14.932  1.00  0.00     0.165 C 
BRANCH   8   9
HETATM    9  N   UNL     1     -44.627 -53.630  14.618  1.00  0.00    -0.356 N 
HETATM   10  C   UNL     1     -45.994 -53.783  14.583  1.00  0.00     0.221 C 
HETATM   11  O   UNL     1     -46.543 -54.832  14.902  1.00  0.00    -0.273 OA
HETATM   12  H   UNL     1     -44.200 -52.809  14.211  1.00  0.00     0.162 HD
BRANCH  10  13
HETATM   13  C   UNL     1     -46.758 -52.569  14.052  1.00  0.00     0.070 C 
HETATM   14  C   UNL     1     -46.739 -51.441  15.084  1.00  0.00     0.019 C 
HETATM   15  C   UNL     1     -46.179 -52.081  12.728  1.00  0.00     0.019 C 
ENDBRANCH  10  13
ENDBRANCH   8   9
ENDBRANCH   1   8
BRANCH   7  16
HETATM   16  N   UNL     1     -41.408 -55.223  16.660  1.00  0.00    -0.363 N 
HETATM   17  C   UNL     1     -41.180 -54.320  17.797  1.00  0.00     0.150 C 
HETATM   18  C   UNL     1     -39.999 -54.773  18.665  1.00  0.00     0.187 C 
HETATM   19  O   UNL     1     -40.130 -56.147  19.062  1.00  0.00    -0.388 OA
HETATM   20  C   UNL     1     -40.135 -56.978  17.897  1.00  0.00     0.187 C 
HETATM   21  C   UNL     1     -41.312 -56.657  16.968  1.00  0.00     0.150 C 
ENDBRANCH   7  16
TORSDOF 4
ENDMDL
MODEL 7
REMARK VINA RESULT:      -5.0      3.141      5.253
REMARK  4 active torsions:
REMARK  status: ('A' for Active; 'I' for Inactive)
REMARK    1  A    between atoms: C_2  and  C_4 
REMARK       I    between atoms: C_4  and  N_6 
REMARK    2  A    between atoms: N_6  and  C_7 
REMARK    3  A    between atoms: C_7  and  C_8 
REMARK    4  A    between atoms: C_14  and  N_15 
ROOT
HETATM    1  C   UNL     1     -44.907 -51.475  14.528  1.00  0.00     0.004 A 
HETATM    2  C   UNL     1     -46.290 -51.345  14.314  1.00  0.00     0.014 A 
HETATM    3  C   UNL     1     -46.853 -51.792  13.130  1.00  0.00     0.018 A 
HETATM    4  C   UNL     1     -46.011 -52.373  12.205  1.00  0.00     0.089 A 
HETATM    5  N   UNL     1     -44.683 -52.539  12.389  1.00  0.00    -0.352 N 
ATOM      6  HN  UNL     1     -44.114 -52.991  11.673  1.00  0.00     0.166 HD
HETATM    7  C   UNL     1     -44.118 -52.096  13.537  1.00  0.00     0.111 A 
ENDROOT
BRANCH   1   8
HETATM    8  C   UNL     1     -44.327 -50.853  15.773  1.00  0.00     0.165 C 
BRANCH   8   9
HETATM    9  N   UNL     1     -45.343 -50.257  16.616  1.00  0.00    -0.356 N 
HETATM   10  C   UNL     1     -45.627 -50.807  17.844  1.00  0.00     0.221 C 
HETATM   11  O   UNL     1     -44.981 -51.741  18.308  1.00  0.00    -0.273 OA
HETATM   12  H   UNL     1     -45.981 -49.591  16.200  1.00  0.00     0.162 HD
BRANCH  10  13
HETATM   13  C   UNL     1     -46.845 -50.205  18.546  1.00  0.00     0.070 C 
HETATM   14  C   UNL     1     -46.667 -48.695  18.712  1.00  0.00     0.019 C 
HETATM   15  C   UNL     1     -48.132 -50.501  17.782  1.00  0.00     0.019 C 
ENDBRANCH  10  13
ENDBRANCH   8   9
ENDBRANCH   1   8
BRANCH   7  16
HETATM   16  N   UNL     1     -42.752 -52.242  13.671  1.00  0.00    -0.363 N 
HETATM   17  C   UNL     1     -41.859 -51.343  12.925  1.00  0.00     0.150 C 
HETATM   18  C   UNL     1     -40.999 -52.101  11.906  1.00  0.00     0.187 C 
HETATM   19  O   UNL     1     -40.302 -53.201  12.515  1.00  0.00    -0.388 OA
HETATM   20  C   UNL     1     -41.254 -54.134  13.035  1.00  0.00     0.187 C 
HETATM   21  C   UNL     1     -42.145 -53.505  14.113  1.00  0.00     0.150 C 
ENDBRANCH   7  16
TORSDOF 4
ENDMDL
MODEL 8
REMARK VINA RESULT:      -5.0      2.293      4.069
REMARK  4 active torsions:
REMARK  status: ('A' for Active; 'I' for Inactive)
REMARK    1  A    between atoms: C_2  and  C_4 
REMARK       I    between atoms: C_4  and  N_6 
REMARK    2  A    between atoms: N_6  and  C_7 
REMARK    3  A    between atoms: C_7  and  C_8 
REMARK    4  A    between atoms: C_14  and  N_15 
ROOT
HETATM    1  C   UNL     1     -42.300 -49.685  12.527  1.00  0.00     0.004 A 
HETATM    2  C   UNL     1     -43.123 -48.577  12.260  1.00  0.00     0.014 A 
HETATM    3  C   UNL     1     -42.878 -47.783  11.152  1.00  0.00     0.018 A 
HETATM    4  C   UNL     1     -41.826 -48.138  10.334  1.00  0.00     0.089 A 
HETATM    5  N   UNL     1     -41.033 -49.212  10.545  1.00  0.00    -0.352 N 
ATOM      6  HN  UNL     1     -40.278 -49.433   9.895  1.00  0.00     0.166 HD
HETATM    7  C   UNL     1     -41.254 -49.990  11.631  1.00  0.00     0.111 A 
ENDROOT
BRANCH   1   8
HETATM    8  C   UNL     1     -42.528 -50.435  13.814  1.00  0.00     0.165 C 
BRANCH   8   9
HETATM    9  N   UNL     1     -43.923 -50.457  14.200  1.00  0.00    -0.356 N 
HETATM   10  C   UNL     1     -44.614 -51.647  14.216  1.00  0.00     0.221 C 
HETATM   11  O   UNL     1     -44.066 -52.724  14.004  1.00  0.00    -0.273 OA
HETATM   12  H   UNL     1     -44.427 -49.581  14.232  1.00  0.00     0.162 HD
BRANCH  10  13
HETATM   13  C   UNL     1     -46.118 -51.508  14.450  1.00  0.00     0.070 C 
HETATM   14  C   UNL     1     -46.867 -51.550  13.117  1.00  0.00     0.019 C 
HETATM   15  C   UNL     1     -46.641 -52.598  15.381  1.00  0.00     0.019 C 
ENDBRANCH  10  13
ENDBRANCH   8   9
ENDBRANCH   1   8
BRANCH   7  16
HETATM   16  N   UNL     1     -40.397 -51.052  11.838  1.00  0.00    -0.363 N 
HETATM   17  C   UNL     1     -40.921 -52.423  11.757  1.00  0.00     0.150 C 
HETATM   18  C   UNL     1     -40.818 -53.160  13.098  1.00  0.00     0.187 C 
HETATM   19  O   UNL     1     -39.485 -53.103  13.631  1.00  0.00    -0.388 OA
HETATM   20  C   UNL     1     -39.131 -51.738  13.876  1.00  0.00     0.187 C 
HETATM   21  C   UNL     1     -39.143 -50.903  12.590  1.00  0.00     0.150 C 
ENDBRANCH   7  16
TORSDOF 4
ENDMDL
MODEL 9
REMARK VINA RESULT:      -4.9      2.340      3.722
REMARK  4 active torsions:
REMARK  status: ('A' for Active; 'I' for Inactive)
REMARK    1  A    between atoms: C_2  and  C_4 
REMARK       I    between atoms: C_4  and  N_6 
REMARK    2  A    between atoms: N_6  and  C_7 
REMARK    3  A    between atoms: C_7  and  C_8 
REMARK    4  A    between atoms: C_14  and  N_15 
ROOT
HETATM    1  C   UNL     1     -39.429 -50.466  13.124  1.00  0.00     0.004 A 
HETATM    2  C   UNL     1     -38.238 -51.211  13.089  1.00  0.00     0.014 A 
HETATM    3  C   UNL     1     -37.247 -50.892  12.175  1.00  0.00     0.018 A 
HETATM    4  C   UNL     1     -37.476 -49.822  11.337  1.00  0.00     0.089 A 
HETATM    5  N   UNL     1     -38.596 -49.067  11.361  1.00  0.00    -0.352 N 
ATOM      6  HN  UNL     1     -38.702 -48.276  10.725  1.00  0.00     0.166 HD
HETATM    7  C   UNL     1     -39.577 -49.375  12.242  1.00  0.00     0.111 A 
ENDROOT
BRANCH   1   8
HETATM    8  C   UNL     1     -40.525 -50.937  14.045  1.00  0.00     0.165 C 
BRANCH   8   9
HETATM    9  N   UNL     1     -41.061 -52.224  13.651  1.00  0.00    -0.356 N 
HETATM   10  C   UNL     1     -42.420 -52.439  13.671  1.00  0.00     0.221 C 
HETATM   11  O   UNL     1     -43.220 -51.543  13.922  1.00  0.00    -0.273 OA
HETATM   12  H   UNL     1     -40.427 -53.008  13.587  1.00  0.00     0.162 HD
BRANCH  10  13
HETATM   13  C   UNL     1     -42.840 -53.887  13.422  1.00  0.00     0.070 C 
HETATM   14  C   UNL     1     -42.921 -54.648  14.747  1.00  0.00     0.019 C 
HETATM   15  C   UNL     1     -44.176 -53.963  12.690  1.00  0.00     0.019 C 
ENDBRANCH  10  13
ENDBRANCH   8   9
ENDBRANCH   1   8
BRANCH   7  16
HETATM   16  N   UNL     1     -40.726 -48.610  12.208  1.00  0.00    -0.363 N 
HETATM   17  C   UNL     1     -41.817 -48.995  11.302  1.00  0.00     0.150 C 
HETATM   18  C   UNL     1     -42.077 -47.931  10.228  1.00  0.00     0.187 C 
HETATM   19  O   UNL     1     -42.267 -46.630  10.808  1.00  0.00    -0.388 OA
HETATM   20  C   UNL     1     -41.076 -46.243  11.500  1.00  0.00     0.187 C 
HETATM   21  C   UNL     1     -40.738 -47.207  12.644  1.00  0.00     0.150 C 
ENDBRANCH   7  16
TORSDOF 4
ENDMDL
