MODEL 1
REMARK VINA RESULT:      -5.7      0.000      0.000
REMARK  2 active torsions:
REMARK  status: ('A' for Active; 'I' for Inactive)
REMARK       I    between atoms: C_2  and  N_3 
REMARK       I    between atoms: C_2  and  N_10 
REMARK    1  A    between atoms: N_3  and  C_4 
REMARK    2  A    between atoms: N_10  and  C_11 
ROOT
HETATM    1  O   UNL     1     -41.447 -52.810  12.217  1.00  0.00    -0.247 OA
HETATM    2  C   UNL     1     -42.075 -51.753  12.248  1.00  0.00     0.322 C 
HETATM    3  N   UNL     1     -43.362 -51.651  12.659  1.00  0.00    -0.338 N 
HETATM    4  N   UNL     1     -41.469 -50.602  11.836  1.00  0.00    -0.295 N 
HETATM    5  H   UNL     1     -43.686 -50.692  12.766  1.00  0.00     0.164 HD
HETATM    6  H   UNL     1     -40.526 -50.753  11.518  1.00  0.00     0.172 HD
ENDROOT
BRANCH   3   7
HETATM    7  C   UNL     1     -44.192 -52.737  13.159  1.00  0.00     0.086 C 
HETATM    8  C   UNL     1     -45.551 -52.821  12.448  1.00  0.00     0.025 C 
HETATM    9  C   UNL     1     -46.425 -51.601  12.735  1.00  0.00     0.002 C 
HETATM   10  C   UNL     1     -46.617 -51.386  14.233  1.00  0.00     0.000 C 
HETATM   11  C   UNL     1     -45.294 -51.354  14.993  1.00  0.00     0.002 C 
HETATM   12  C   UNL     1     -44.414 -52.566  14.670  1.00  0.00     0.025 C 
ENDBRANCH   3   7
BRANCH   4  13
HETATM   13  C   UNL     1     -41.991 -49.305  11.775  1.00  0.00     0.108 A 
HETATM   14  C   UNL     1     -42.195 -48.629  12.974  1.00  0.00     0.049 A 
HETATM   15  C   UNL     1     -42.693 -47.328  12.941  1.00  0.00     0.005 A 
HETATM   16  C   UNL     1     -42.975 -46.736  11.718  1.00  0.00     0.017 A 
HETATM   17  C   UNL     1     -42.756 -47.479  10.572  1.00  0.00     0.089 A 
HETATM   18  N   UNL     1     -42.281 -48.745  10.578  1.00  0.00    -0.352 N 
ATOM     19  HN  UNL     1     -42.146 -49.262   9.709  1.00  0.00     0.166 HD
ENDBRANCH   4  13
TORSDOF 2
ENDMDL
MODEL 2
REMARK VINA RESULT:      -5.6      4.221      6.526
REMARK  2 active torsions:
REMARK  status: ('A' for Active; 'I' for Inactive)
REMARK       I    between atoms: C_2  and  N_3 
REMARK       I    between atoms: C_2  and  N_10 
REMARK    1  A    between atoms: N_3  and  C_4 
REMARK    2  A    between atoms: N_10  and  C_11 
ROOT
HETATM    1  O   UNL     1     -42.441 -48.093   9.910  1.00  0.00    -0.247 OA
HETATM    2  C   UNL     1     -41.481 -48.307  10.649  1.00  0.00     0.322 C 
HETATM    3  N   UNL     1     -41.020 -47.420  11.563  1.00  0.00    -0.338 N 
HETATM    4  N   UNL     1     -40.816 -49.494  10.554  1.00  0.00    -0.295 N 
HETATM    5  H   UNL     1     -40.319 -47.805  12.194  1.00  0.00     0.164 HD
HETATM    6  H   UNL     1     -41.191 -50.093   9.838  1.00  0.00     0.172 HD
ENDROOT
BRANCH   3   7
HETATM    7  C   UNL     1     -41.586 -46.111  11.851  1.00  0.00     0.086 C 
HETATM    8  C   UNL     1     -41.100 -45.028  10.877  1.00  0.00     0.025 C 
HETATM    9  C   UNL     1     -39.604 -44.758  11.018  1.00  0.00     0.002 C 
HETATM   10  C   UNL     1     -39.229 -44.396  12.452  1.00  0.00     0.000 C 
HETATM   11  C   UNL     1     -39.741 -45.416  13.465  1.00  0.00     0.002 C 
HETATM   12  C   UNL     1     -41.237 -45.700  13.290  1.00  0.00     0.025 C 
ENDBRANCH   3   7
BRANCH   4  13
HETATM   13  C   UNL     1     -39.702 -49.940  11.277  1.00  0.00     0.108 A 
HETATM   14  C   UNL     1     -39.932 -50.616  12.471  1.00  0.00     0.049 A 
HETATM   15  C   UNL     1     -38.842 -51.090  13.200  1.00  0.00     0.005 A 
HETATM   16  C   UNL     1     -37.557 -50.878  12.721  1.00  0.00     0.017 A 
HETATM   17  C   UNL     1     -37.414 -50.187  11.531  1.00  0.00     0.089 A 
HETATM   18  N   UNL     1     -38.454 -49.710  10.810  1.00  0.00    -0.352 N 
ATOM     19  HN  UNL     1     -38.302 -49.194   9.943  1.00  0.00     0.166 HD
ENDBRANCH   4  13
TORSDOF 2
ENDMDL
MODEL 3
REMARK VINA RESULT:      -5.5      2.108      3.097
REMARK  2 active torsions:
REMARK  status: ('A' for Active; 'I' for Inactive)
REMARK       I    between atoms: C_2  and  N_3 
REMARK       I    between atoms: C_2  and  N_10 
REMARK    1  A    between atoms: N_3  and  C_4 
REMARK    2  A    between atoms: N_10  and  C_11 
ROOT
HETATM    1  O   UNL     1     -44.929 -54.466  12.461  1.00  0.00    -0.247 OA
HETATM    2  C   UNL     1     -44.152 -53.594  12.849  1.00  0.00     0.322 C 
HETATM    3  N   UNL     1     -44.181 -53.057  14.093  1.00  0.00    -0.338 N 
HETATM    4  N   UNL     1     -43.205 -53.113  11.994  1.00  0.00    -0.295 N 
HETATM    5  H   UNL     1     -43.382 -52.462  14.303  1.00  0.00     0.164 HD
HETATM    6  H   UNL     1     -43.257 -53.533  11.081  1.00  0.00     0.172 HD
ENDROOT
BRANCH   3   7
HETATM    7  C   UNL     1     -45.084 -53.434  15.170  1.00  0.00     0.086 C 
HETATM    8  C   UNL     1     -46.521 -52.944  14.936  1.00  0.00     0.025 C 
HETATM    9  C   UNL     1     -46.621 -51.420  14.963  1.00  0.00     0.002 C 
HETATM   10  C   UNL     1     -46.063 -50.842  16.260  1.00  0.00     0.000 C 
HETATM   11  C   UNL     1     -44.655 -51.346  16.566  1.00  0.00     0.002 C 
HETATM   12  C   UNL     1     -44.564 -52.874  16.503  1.00  0.00     0.025 C 
ENDBRANCH   3   7
BRANCH   4  13
HETATM   13  C   UNL     1     -42.238 -52.125  12.216  1.00  0.00     0.108 A 
HETATM   14  C   UNL     1     -40.957 -52.538  12.570  1.00  0.00     0.049 A 
HETATM   15  C   UNL     1     -39.969 -51.576  12.776  1.00  0.00     0.005 A 
HETATM   16  C   UNL     1     -40.283 -50.233  12.624  1.00  0.00     0.017 A 
HETATM   17  C   UNL     1     -41.582 -49.905  12.281  1.00  0.00     0.089 A 
HETATM   18  N   UNL     1     -42.560 -50.818  12.085  1.00  0.00    -0.352 N 
ATOM     19  HN  UNL     1     -43.509 -50.531  11.845  1.00  0.00     0.166 HD
ENDBRANCH   4  13
TORSDOF 2
ENDMDL
MODEL 4
REMARK VINA RESULT:      -5.4      3.132      4.258
REMARK  2 active torsions:
REMARK  status: ('A' for Active; 'I' for Inactive)
REMARK       I    between atoms: C_2  and  N_3 
REMARK       I    between atoms: C_2  and  N_10 
REMARK    1  A    between atoms: N_3  and  C_4 
REMARK    2  A    between atoms: N_10  and  C_11 
ROOT
HETATM    1  O   UNL     1     -46.053 -52.889  11.911  1.00  0.00    -0.247 OA
HETATM    2  C   UNL     1     -45.034 -52.950  12.598  1.00  0.00     0.322 C 
HETATM    3  N   UNL     1     -45.041 -53.048  13.949  1.00  0.00    -0.338 N 
HETATM    4  N   UNL     1     -43.814 -52.904  11.991  1.00  0.00    -0.295 N 
HETATM    5  H   UNL     1     -44.126 -53.239  14.353  1.00  0.00     0.164 HD
HETATM    6  H   UNL     1     -43.881 -52.802  10.992  1.00  0.00     0.172 HD
ENDROOT
BRANCH   3   7
HETATM    7  C   UNL     1     -46.219 -53.136  14.799  1.00  0.00     0.086 C 
HETATM    8  C   UNL     1     -46.800 -51.759  15.151  1.00  0.00     0.025 C 
HETATM    9  C   UNL     1     -45.849 -50.939  16.020  1.00  0.00     0.002 C 
HETATM   10  C   UNL     1     -45.453 -51.693  17.287  1.00  0.00     0.000 C 
HETATM   11  C   UNL     1     -44.923 -53.093  16.991  1.00  0.00     0.002 C 
HETATM   12  C   UNL     1     -45.872 -53.891  16.091  1.00  0.00     0.025 C 
ENDBRANCH   3   7
BRANCH   4  13
HETATM   13  C   UNL     1     -42.540 -52.944  12.571  1.00  0.00     0.108 A 
HETATM   14  C   UNL     1     -41.967 -51.739  12.964  1.00  0.00     0.049 A 
HETATM   15  C   UNL     1     -40.709 -51.753  13.564  1.00  0.00     0.005 A 
HETATM   16  C   UNL     1     -40.057 -52.963  13.754  1.00  0.00     0.017 A 
HETATM   17  C   UNL     1     -40.690 -54.116  13.325  1.00  0.00     0.089 A 
HETATM   18  N   UNL     1     -41.905 -54.128  12.733  1.00  0.00    -0.352 N 
ATOM     19  HN  UNL     1     -42.330 -55.001  12.420  1.00  0.00     0.166 HD
ENDBRANCH   4  13
TORSDOF 2
ENDMDL
MODEL 5
REMARK VINA RESULT:      -5.4      1.035      4.957
REMARK  2 active torsions:
REMARK  status: ('A' for Active; 'I' for Inactive)
REMARK       I    between atoms: C_2  and  N_3 
REMARK       I    between atoms: C_2  and  N_10 
REMARK    1  A    between atoms: N_3  and  C_4 
REMARK    2  A    between atoms: N_10  and  C_11 
ROOT
HETATM    1  O   UNL     1     -40.559 -51.719  12.009  1.00  0.00    -0.247 OA
HETATM    2  C   UNL     1     -41.724 -51.369  12.191  1.00  0.00     0.322 C 
HETATM    3  N   UNL     1     -42.192 -50.128  11.911  1.00  0.00    -0.338 N 
HETATM    4  N   UNL     1     -42.615 -52.257  12.717  1.00  0.00    -0.295 N 
HETATM    5  H   UNL     1     -43.204 -50.045  11.976  1.00  0.00     0.164 HD
HETATM    6  H   UNL     1     -42.197 -53.148  12.928  1.00  0.00     0.172 HD
ENDROOT
BRANCH   3   7
HETATM    7  C   UNL     1     -41.430 -49.035  11.326  1.00  0.00     0.086 C 
HETATM    8  C   UNL     1     -40.744 -48.158  12.384  1.00  0.00     0.025 C 
HETATM    9  C   UNL     1     -41.753 -47.407  13.250  1.00  0.00     0.002 C 
HETATM   10  C   UNL     1     -42.711 -46.574  12.404  1.00  0.00     0.000 C 
HETATM   11  C   UNL     1     -43.376 -47.391  11.299  1.00  0.00     0.002 C 
HETATM   12  C   UNL     1     -42.353 -48.164  10.460  1.00  0.00     0.025 C 
ENDBRANCH   3   7
BRANCH   4  13
HETATM   13  C   UNL     1     -43.971 -52.073  13.017  1.00  0.00     0.108 A 
HETATM   14  C   UNL     1     -44.290 -51.405  14.195  1.00  0.00     0.049 A 
HETATM   15  C   UNL     1     -45.631 -51.188  14.507  1.00  0.00     0.005 A 
HETATM   16  C   UNL     1     -46.615 -51.641  13.639  1.00  0.00     0.017 A 
HETATM   17  C   UNL     1     -46.215 -52.305  12.494  1.00  0.00     0.089 A 
HETATM   18  N   UNL     1     -44.921 -52.535  12.173  1.00  0.00    -0.352 N 
ATOM     19  HN  UNL     1     -44.671 -53.041  11.323  1.00  0.00     0.166 HD
ENDBRANCH   4  13
TORSDOF 2
ENDMDL
MODEL 6
REMARK VINA RESULT:      -5.3      3.595      5.473
REMARK  2 active torsions:
REMARK  status: ('A' for Active; 'I' for Inactive)
REMARK       I    between atoms: C_2  and  N_3 
REMARK       I    between atoms: C_2  and  N_10 
REMARK    1  A    between atoms: N_3  and  C_4 
REMARK    2  A    between atoms: N_10  and  C_11 
ROOT
HETATM    1  O   UNL     1     -43.081 -55.902  15.567  1.00  0.00    -0.247 OA
HETATM    2  C   UNL     1     -43.470 -54.871  15.021  1.00  0.00     0.322 C 
HETATM    3  N   UNL     1     -42.644 -53.889  14.586  1.00  0.00    -0.338 N 
HETATM    4  N   UNL     1     -44.807 -54.672  14.840  1.00  0.00    -0.295 N 
HETATM    5  H   UNL     1     -43.108 -53.178  14.025  1.00  0.00     0.164 HD
HETATM    6  H   UNL     1     -45.364 -55.424  15.210  1.00  0.00     0.172 HD
ENDROOT
BRANCH   3   7
HETATM    7  C   UNL     1     -41.190 -53.898  14.653  1.00  0.00     0.086 C 
HETATM    8  C   UNL     1     -40.615 -52.601  15.242  1.00  0.00     0.025 C 
HETATM    9  C   UNL     1     -40.879 -51.395  14.343  1.00  0.00     0.002 C 
HETATM   10  C   UNL     1     -40.351 -51.621  12.930  1.00  0.00     0.000 C 
HETATM   11  C   UNL     1     -40.850 -52.929  12.321  1.00  0.00     0.002 C 
HETATM   12  C   UNL     1     -40.608 -54.124  13.249  1.00  0.00     0.025 C 
ENDBRANCH   3   7
BRANCH   4  13
HETATM   13  C   UNL     1     -45.466 -53.581  14.260  1.00  0.00     0.108 A 
HETATM   14  C   UNL     1     -45.901 -52.563  15.103  1.00  0.00     0.049 A 
HETATM   15  C   UNL     1     -46.540 -51.454  14.550  1.00  0.00     0.005 A 
HETATM   16  C   UNL     1     -46.728 -51.390  13.177  1.00  0.00     0.017 A 
HETATM   17  C   UNL     1     -46.276 -52.449  12.410  1.00  0.00     0.089 A 
HETATM   18  N   UNL     1     -45.661 -53.538  12.923  1.00  0.00    -0.352 N 
ATOM     19  HN  UNL     1     -45.355 -54.303  12.321  1.00  0.00     0.166 HD
ENDBRANCH   4  13
TORSDOF 2
ENDMDL
MODEL 7
REMARK VINA RESULT:      -5.3      3.160      3.836
REMARK  2 active torsions:
REMARK  status: ('A' for Active; 'I' for Inactive)
REMARK       I    between atoms: C_2  and  N_3 
REMARK       I    between atoms: C_2  and  N_10 
REMARK    1  A    between atoms: N_3  and  C_4 
REMARK    2  A    between atoms: N_10  and  C_11 
ROOT
HETATM    1  O   UNL     1     -43.455 -55.922  15.295  1.00  0.00    -0.247 OA
HETATM    2  C   UNL     1     -43.172 -54.808  14.855  1.00  0.00     0.322 C 
HETATM    3  N   UNL     1     -43.972 -53.722  14.980  1.00  0.00    -0.338 N 
HETATM    4  N   UNL     1     -41.997 -54.632  14.186  1.00  0.00    -0.295 N 
HETATM    5  H   UNL     1     -43.530 -52.850  14.697  1.00  0.00     0.164 HD
HETATM    6  H   UNL     1     -41.465 -55.483  14.104  1.00  0.00     0.172 HD
ENDROOT
BRANCH   3   7
HETATM    7  C   UNL     1     -45.252 -53.673  15.672  1.00  0.00     0.086 C 
HETATM    8  C   UNL     1     -46.445 -53.861  14.723  1.00  0.00     0.025 C 
HETATM    9  C   UNL     1     -46.580 -52.706  13.734  1.00  0.00     0.002 C 
HETATM   10  C   UNL     1     -46.671 -51.360  14.448  1.00  0.00     0.000 C 
HETATM   11  C   UNL     1     -45.535 -51.151  15.446  1.00  0.00     0.002 C 
HETATM   12  C   UNL     1     -45.391 -52.333  16.410  1.00  0.00     0.025 C 
ENDBRANCH   3   7
BRANCH   4  13
HETATM   13  C   UNL     1     -41.484 -53.469  13.597  1.00  0.00     0.108 A 
HETATM   14  C   UNL     1     -40.651 -52.665  14.367  1.00  0.00     0.049 A 
HETATM   15  C   UNL     1     -40.109 -51.513  13.798  1.00  0.00     0.005 A 
HETATM   16  C   UNL     1     -40.412 -51.195  12.482  1.00  0.00     0.017 A 
HETATM   17  C   UNL     1     -41.257 -52.042  11.787  1.00  0.00     0.089 A 
HETATM   18  N   UNL     1     -41.802 -53.159  12.319  1.00  0.00    -0.352 N 
ATOM     19  HN  UNL     1     -42.432 -53.749  11.775  1.00  0.00     0.166 HD
ENDBRANCH   4  13
TORSDOF 2
ENDMDL
MODEL 8
REMARK VINA RESULT:      -5.2      1.774      2.091
REMARK  2 active torsions:
REMARK  status: ('A' for Active; 'I' for Inactive)
REMARK       I    between atoms: C_2  and  N_3 
REMARK       I    between atoms: C_2  and  N_10 
REMARK    1  A    between atoms: N_3  and  C_4 
REMARK    2  A    between atoms: N_10  and  C_11 
ROOT
HETATM    1  O   UNL     1     -39.863 -53.165  12.887  1.00  0.00    -0.247 OA
HETATM    2  C   UNL     1     -40.389 -52.063  12.733  1.00  0.00     0.322 C 
HETATM    3  N   UNL     1     -41.582 -51.714  13.272  1.00  0.00    -0.338 N 
HETATM    4  N   UNL     1     -39.762 -51.123  11.969  1.00  0.00    -0.295 N 
HETATM    5  H   UNL     1     -41.804 -50.725  13.177  1.00  0.00     0.164 HD
HETATM    6  H   UNL     1     -38.897 -51.457  11.577  1.00  0.00     0.172 HD
ENDROOT
BRANCH   3   7
HETATM    7  C   UNL     1     -42.410 -52.543  14.135  1.00  0.00     0.086 C 
HETATM    8  C   UNL     1     -43.110 -53.678  13.373  1.00  0.00     0.025 C 
HETATM    9  C   UNL     1     -44.135 -53.149  12.371  1.00  0.00     0.002 C 
HETATM   10  C   UNL     1     -45.161 -52.242  13.041  1.00  0.00     0.000 C 
HETATM   11  C   UNL     1     -44.511 -51.130  13.860  1.00  0.00     0.002 C 
HETATM   12  C   UNL     1     -43.463 -51.672  14.837  1.00  0.00     0.025 C 
ENDBRANCH   3   7
BRANCH   4  13
HETATM   13  C   UNL     1     -40.178 -49.824  11.653  1.00  0.00     0.108 A 
HETATM   14  C   UNL     1     -39.497 -48.763  12.242  1.00  0.00     0.049 A 
HETATM   15  C   UNL     1     -39.876 -47.459  11.927  1.00  0.00     0.005 A 
HETATM   16  C   UNL     1     -40.920 -47.248  11.038  1.00  0.00     0.017 A 
HETATM   17  C   UNL     1     -41.552 -48.357  10.504  1.00  0.00     0.089 A 
HETATM   18  N   UNL     1     -41.209 -49.631  10.799  1.00  0.00    -0.352 N 
ATOM     19  HN  UNL     1     -41.711 -50.420  10.392  1.00  0.00     0.166 HD
ENDBRANCH   4  13
TORSDOF 2
ENDMDL
MODEL 9
REMARK VINA RESULT:      -5.2      2.391      4.607
REMARK  2 active torsions:
REMARK  status: ('A' for Active; 'I' for Inactive)
REMARK       I    between atoms: C_2  and  N_3 
REMARK       I    between atoms: C_2  and  N_10 
REMARK    1  A    between atoms: N_3  and  C_4 
REMARK    2  A    between atoms: N_10  and  C_11 
ROOT
HETATM    1  O   UNL     1     -41.174 -50.101  11.736  1.00  0.00    -0.247 OA
HETATM    2  C   UNL     1     -42.023 -50.706  12.390  1.00  0.00     0.322 C 
HETATM    3  N   UNL     1     -41.820 -51.926  12.943  1.00  0.00    -0.338 N 
HETATM    4  N   UNL     1     -43.252 -50.145  12.573  1.00  0.00    -0.295 N 
HETATM    5  H   UNL     1     -42.562 -52.221  13.575  1.00  0.00     0.164 HD
HETATM    6  H   UNL     1     -43.345 -49.255  12.113  1.00  0.00     0.172 HD
ENDROOT
BRANCH   3   7
HETATM    7  C   UNL     1     -40.586 -52.697  12.896  1.00  0.00     0.086 C 
HETATM    8  C   UNL     1     -40.825 -54.208  13.030  1.00  0.00     0.025 C 
HETATM    9  C   UNL     1     -41.376 -54.583  14.404  1.00  0.00     0.002 C 
HETATM   10  C   UNL     1     -40.473 -54.083  15.528  1.00  0.00     0.000 C 
HETATM   11  C   UNL     1     -40.159 -52.594  15.406  1.00  0.00     0.002 C 
HETATM   12  C   UNL     1     -39.639 -52.228  14.012  1.00  0.00     0.025 C 
ENDBRANCH   3   7
BRANCH   4  13
HETATM   13  C   UNL     1     -44.359 -50.655  13.263  1.00  0.00     0.108 A 
HETATM   14  C   UNL     1     -44.350 -50.580  14.652  1.00  0.00     0.049 A 
HETATM   15  C   UNL     1     -45.449 -51.059  15.363  1.00  0.00     0.005 A 
HETATM   16  C   UNL     1     -46.524 -51.600  14.672  1.00  0.00     0.017 A 
HETATM   17  C   UNL     1     -46.451 -51.649  13.292  1.00  0.00     0.089 A 
HETATM   18  N   UNL     1     -45.393 -51.198  12.580  1.00  0.00    -0.352 N 
ATOM     19  HN  UNL     1     -45.375 -51.265  11.562  1.00  0.00     0.166 HD
ENDBRANCH   4  13
TORSDOF 2
ENDMDL
