MODEL 1
REMARK VINA RESULT:      -5.3      0.000      0.000
REMARK  4 active torsions:
REMARK  status: ('A' for Active; 'I' for Inactive)
REMARK    1  A    between atoms: C_5  and  C_6 
REMARK    2  A    between atoms: C_6  and  C_7 
REMARK    3  A    between atoms: C_7  and  N_8 
REMARK    4  A    between atoms: N_8  and  C_9 
ROOT
HETATM    1  C   UNL     1     -42.217 -53.488  13.511  1.00  0.00     0.276 C 
ENDROOT
BRANCH   1   2
HETATM    2  C   UNL     1     -41.662 -52.628  12.365  1.00  0.00     0.087 C 
BRANCH   2   3
HETATM    3  C   UNL     1     -40.371 -51.954  12.700  1.00  0.00     0.018 A 
HETATM    4  N   UNL     1     -39.788 -51.111  11.765  1.00  0.00    -0.357 N 
HETATM    5  C   UNL     1     -38.649 -50.646  12.232  1.00  0.00     0.046 A 
ATOM      6  HN  UNL     1     -40.184 -50.885  10.853  1.00  0.00     0.166 HD
HETATM    7  C   UNL     1     -37.734 -49.746  11.481  1.00  0.00     0.076 C 
HETATM    8  S   UNL     1     -38.236 -51.148  13.822  1.00  0.00    -0.087 SA
HETATM    9  C   UNL     1     -39.669 -52.077  13.885  1.00  0.00     0.076 A 
ENDBRANCH   2   3
ENDBRANCH   1   2
BRANCH   1  10
HETATM   10  N   UNL     1     -43.235 -52.797  14.320  1.00  0.00     0.088 N 
HETATM   11  H   UNL     1     -42.795 -52.079  14.893  1.00  0.00     0.316 HD
BRANCH  10  12
HETATM   12  C   UNL     1     -44.271 -52.187  13.493  1.00  0.00     0.225 C 
HETATM   13  C   UNL     1     -45.040 -51.074  14.243  1.00  0.00     0.040 C 
HETATM   14  C   UNL     1     -46.516 -51.422  13.963  1.00  0.00    -0.012 C 
HETATM   15  C   UNL     1     -46.900 -52.630  14.834  1.00  0.00     0.005 C 
HETATM   16  C   UNL     1     -46.449 -52.050  12.571  1.00  0.00     0.011 C 
HETATM   17  C   UNL     1     -46.152 -53.787  14.163  1.00  0.00     0.007 C 
HETATM   18  C   UNL     1     -45.419 -53.101  12.994  1.00  0.00     0.019 C 
ENDBRANCH  10  12
ENDBRANCH   1  10
TORSDOF 4
ENDMDL
MODEL 2
REMARK VINA RESULT:      -5.2      2.195      3.330
REMARK  4 active torsions:
REMARK  status: ('A' for Active; 'I' for Inactive)
REMARK    1  A    between atoms: C_5  and  C_6 
REMARK    2  A    between atoms: C_6  and  C_7 
REMARK    3  A    between atoms: C_7  and  N_8 
REMARK    4  A    between atoms: N_8  and  C_9 
ROOT
HETATM    1  C   UNL     1     -45.328 -54.891  13.645  1.00  0.00     0.276 C 
ENDROOT
BRANCH   1   2
HETATM    2  C   UNL     1     -44.054 -55.333  14.382  1.00  0.00     0.087 C 
BRANCH   2   3
HETATM    3  C   UNL     1     -42.893 -54.418  14.160  1.00  0.00     0.018 A 
HETATM    4  N   UNL     1     -42.766 -53.775  12.938  1.00  0.00    -0.357 N 
HETATM    5  C   UNL     1     -41.669 -53.047  12.927  1.00  0.00     0.046 A 
ATOM      6  HN  UNL     1     -43.425 -53.853  12.163  1.00  0.00     0.166 HD
HETATM    7  C   UNL     1     -41.193 -52.254  11.763  1.00  0.00     0.076 C 
HETATM    8  S   UNL     1     -40.759 -53.054  14.385  1.00  0.00    -0.087 SA
HETATM    9  C   UNL     1     -41.896 -54.128  15.073  1.00  0.00     0.076 A 
ENDBRANCH   2   3
ENDBRANCH   1   2
BRANCH   1  10
HETATM   10  N   UNL     1     -46.504 -54.779  14.525  1.00  0.00     0.088 N 
HETATM   11  H   UNL     1     -46.260 -55.076  15.469  1.00  0.00     0.316 HD
BRANCH  10  12
HETATM   12  C   UNL     1     -47.030 -53.419  14.566  1.00  0.00     0.225 C 
HETATM   13  C   UNL     1     -46.322 -52.486  13.556  1.00  0.00     0.040 C 
HETATM   14  C   UNL     1     -45.986 -51.244  14.406  1.00  0.00    -0.012 C 
HETATM   15  C   UNL     1     -44.794 -51.590  15.314  1.00  0.00     0.005 C 
HETATM   16  C   UNL     1     -47.140 -51.208  15.407  1.00  0.00     0.011 C 
HETATM   17  C   UNL     1     -45.414 -52.541  16.344  1.00  0.00     0.007 C 
HETATM   18  C   UNL     1     -46.884 -52.636  15.895  1.00  0.00     0.019 C 
ENDBRANCH  10  12
ENDBRANCH   1  10
TORSDOF 4
ENDMDL
MODEL 3
REMARK VINA RESULT:      -5.2      4.795      7.273
REMARK  4 active torsions:
REMARK  status: ('A' for Active; 'I' for Inactive)
REMARK    1  A    between atoms: C_5  and  C_6 
REMARK    2  A    between atoms: C_6  and  C_7 
REMARK    3  A    between atoms: C_7  and  N_8 
REMARK    4  A    between atoms: N_8  and  C_9 
ROOT
HETATM    1  C   UNL     1     -41.676 -49.407  11.630  1.00  0.00     0.276 C 
ENDROOT
BRANCH   1   2
HETATM    2  C   UNL     1     -42.178 -47.983  11.919  1.00  0.00     0.087 C 
BRANCH   2   3
HETATM    3  C   UNL     1     -43.029 -47.420  10.827  1.00  0.00     0.018 A 
HETATM    4  N   UNL     1     -44.198 -48.079  10.476  1.00  0.00    -0.357 N 
HETATM    5  C   UNL     1     -44.783 -47.451   9.479  1.00  0.00     0.046 A 
ATOM      6  HN  UNL     1     -44.551 -48.925  10.924  1.00  0.00     0.166 HD
HETATM    7  C   UNL     1     -46.037 -47.900   8.818  1.00  0.00     0.076 C 
HETATM    8  S   UNL     1     -44.000 -46.020   8.940  1.00  0.00    -0.087 SA
HETATM    9  C   UNL     1     -42.774 -46.270  10.104  1.00  0.00     0.076 A 
ENDBRANCH   2   3
ENDBRANCH   1   2
BRANCH   1  10
HETATM   10  N   UNL     1     -40.490 -49.443  10.759  1.00  0.00     0.088 N 
HETATM   11  H   UNL     1     -40.129 -48.500  10.624  1.00  0.00     0.316 HD
BRANCH  10  12
HETATM   12  C   UNL     1     -39.435 -50.291  11.305  1.00  0.00     0.225 C 
HETATM   13  C   UNL     1     -39.894 -51.054  12.570  1.00  0.00     0.040 C 
HETATM   14  C   UNL     1     -38.741 -50.805  13.563  1.00  0.00    -0.012 C 
HETATM   15  C   UNL     1     -38.854 -49.362  14.081  1.00  0.00     0.005 C 
HETATM   16  C   UNL     1     -37.525 -50.711  12.641  1.00  0.00     0.011 C 
HETATM   17  C   UNL     1     -38.433 -48.529  12.866  1.00  0.00     0.007 C 
HETATM   18  C   UNL     1     -38.140 -49.594  11.793  1.00  0.00     0.019 C 
ENDBRANCH  10  12
ENDBRANCH   1  10
TORSDOF 4
ENDMDL
MODEL 4
REMARK VINA RESULT:      -5.2      1.877      2.643
REMARK  4 active torsions:
REMARK  status: ('A' for Active; 'I' for Inactive)
REMARK    1  A    between atoms: C_5  and  C_6 
REMARK    2  A    between atoms: C_6  and  C_7 
REMARK    3  A    between atoms: C_7  and  N_8 
REMARK    4  A    between atoms: N_8  and  C_9 
ROOT
HETATM    1  C   UNL     1     -44.214 -53.592  12.553  1.00  0.00     0.276 C 
ENDROOT
BRANCH   1   2
HETATM    2  C   UNL     1     -42.712 -53.594  12.880  1.00  0.00     0.087 C 
BRANCH   2   3
HETATM    3  C   UNL     1     -42.043 -52.287  12.601  1.00  0.00     0.018 A 
HETATM    4  N   UNL     1     -42.822 -51.150  12.443  1.00  0.00    -0.357 N 
HETATM    5  C   UNL     1     -42.054 -50.116  12.171  1.00  0.00     0.046 A 
ATOM      6  HN  UNL     1     -43.838 -51.120  12.526  1.00  0.00     0.166 HD
HETATM    7  C   UNL     1     -42.554 -48.742  11.900  1.00  0.00     0.076 C 
HETATM    8  S   UNL     1     -40.366 -50.432  12.136  1.00  0.00    -0.087 SA
HETATM    9  C   UNL     1     -40.681 -52.076  12.482  1.00  0.00     0.076 A 
ENDBRANCH   2   3
ENDBRANCH   1   2
BRANCH   1  10
HETATM   10  N   UNL     1     -45.018 -54.386  13.496  1.00  0.00     0.088 N 
HETATM   11  H   UNL     1     -44.436 -54.697  14.272  1.00  0.00     0.316 HD
BRANCH  10  12
HETATM   12  C   UNL     1     -46.156 -53.634  14.015  1.00  0.00     0.225 C 
HETATM   13  C   UNL     1     -46.335 -52.275  13.298  1.00  0.00     0.040 C 
HETATM   14  C   UNL     1     -46.507 -51.285  14.468  1.00  0.00    -0.012 C 
HETATM   15  C   UNL     1     -45.129 -51.055  15.111  1.00  0.00     0.005 C 
HETATM   16  C   UNL     1     -47.205 -52.141  15.525  1.00  0.00     0.011 C 
HETATM   17  C   UNL     1     -44.863 -52.380  15.833  1.00  0.00     0.007 C 
HETATM   18  C   UNL     1     -46.115 -53.216  15.507  1.00  0.00     0.019 C 
ENDBRANCH  10  12
ENDBRANCH   1  10
TORSDOF 4
ENDMDL
MODEL 5
REMARK VINA RESULT:      -5.1      2.097      2.463
REMARK  4 active torsions:
REMARK  status: ('A' for Active; 'I' for Inactive)
REMARK    1  A    between atoms: C_5  and  C_6 
REMARK    2  A    between atoms: C_6  and  C_7 
REMARK    3  A    between atoms: C_7  and  N_8 
REMARK    4  A    between atoms: N_8  and  C_9 
ROOT
HETATM    1  C   UNL     1     -42.978 -52.357  12.617  1.00  0.00     0.276 C 
ENDROOT
BRANCH   1   2
HETATM    2  C   UNL     1     -41.597 -52.397  11.944  1.00  0.00     0.087 C 
BRANCH   2   3
HETATM    3  C   UNL     1     -40.940 -51.058  11.858  1.00  0.00     0.018 A 
HETATM    4  N   UNL     1     -41.654 -49.989  11.337  1.00  0.00    -0.357 N 
HETATM    5  C   UNL     1     -40.895 -48.914  11.313  1.00  0.00     0.046 A 
ATOM      6  HN  UNL     1     -42.622 -50.030  11.020  1.00  0.00     0.166 HD
HETATM    7  C   UNL     1     -41.320 -47.592  10.779  1.00  0.00     0.076 C 
HETATM    8  S   UNL     1     -39.312 -49.106  11.953  1.00  0.00    -0.087 SA
HETATM    9  C   UNL     1     -39.653 -50.752  12.260  1.00  0.00     0.076 A 
ENDBRANCH   2   3
ENDBRANCH   1   2
BRANCH   1  10
HETATM   10  N   UNL     1     -43.919 -53.356  12.083  1.00  0.00     0.088 N 
HETATM   11  H   UNL     1     -43.454 -54.259  11.998  1.00  0.00     0.316 HD
BRANCH  10  12
HETATM   12  C   UNL     1     -45.102 -53.499  12.925  1.00  0.00     0.225 C 
HETATM   13  C   UNL     1     -45.139 -52.455  14.066  1.00  0.00     0.040 C 
HETATM   14  C   UNL     1     -45.459 -53.309  15.309  1.00  0.00    -0.012 C 
HETATM   15  C   UNL     1     -44.187 -54.077  15.707  1.00  0.00     0.005 C 
HETATM   16  C   UNL     1     -46.327 -54.425  14.729  1.00  0.00     0.011 C 
HETATM   17  C   UNL     1     -44.064 -55.130  14.601  1.00  0.00     0.007 C 
HETATM   18  C   UNL     1     -45.273 -54.834  13.695  1.00  0.00     0.019 C 
ENDBRANCH  10  12
ENDBRANCH   1  10
TORSDOF 4
ENDMDL
MODEL 6
REMARK VINA RESULT:      -5.1      3.415      5.022
REMARK  4 active torsions:
REMARK  status: ('A' for Active; 'I' for Inactive)
REMARK    1  A    between atoms: C_5  and  C_6 
REMARK    2  A    between atoms: C_6  and  C_7 
REMARK    3  A    between atoms: C_7  and  N_8 
REMARK    4  A    between atoms: N_8  and  C_9 
ROOT
HETATM    1  C   UNL     1     -40.859 -50.537  12.139  1.00  0.00     0.276 C 
ENDROOT
BRANCH   1   2
HETATM    2  C   UNL     1     -40.297 -49.515  11.139  1.00  0.00     0.087 C 
BRANCH   2   3
HETATM    3  C   UNL     1     -41.227 -48.376  10.868  1.00  0.00     0.018 A 
HETATM    4  N   UNL     1     -42.542 -48.648  10.524  1.00  0.00    -0.357 N 
HETATM    5  C   UNL     1     -43.186 -47.523  10.292  1.00  0.00     0.046 A 
ATOM      6  HN  UNL     1     -42.950 -49.581  10.459  1.00  0.00     0.166 HD
HETATM    7  C   UNL     1     -44.606 -47.437   9.859  1.00  0.00     0.076 C 
HETATM    8  S   UNL     1     -42.274 -46.085  10.519  1.00  0.00    -0.087 SA
HETATM    9  C   UNL     1     -40.911 -47.032  10.930  1.00  0.00     0.076 A 
ENDBRANCH   2   3
ENDBRANCH   1   2
BRANCH   1  10
HETATM   10  N   UNL     1     -41.109 -51.860  11.544  1.00  0.00     0.088 N 
HETATM   11  H   UNL     1     -40.226 -52.350  11.403  1.00  0.00     0.316 HD
BRANCH  10  12
HETATM   12  C   UNL     1     -41.986 -52.678  12.375  1.00  0.00     0.225 C 
HETATM   13  C   UNL     1     -42.353 -51.978  13.705  1.00  0.00     0.040 C 
HETATM   14  C   UNL     1     -42.097 -53.075  14.758  1.00  0.00    -0.012 C 
HETATM   15  C   UNL     1     -40.577 -53.213  14.951  1.00  0.00     0.005 C 
HETATM   16  C   UNL     1     -42.430 -54.354  13.989  1.00  0.00     0.011 C 
HETATM   17  C   UNL     1     -40.127 -53.887  13.651  1.00  0.00     0.007 C 
HETATM   18  C   UNL     1     -41.441 -54.044  12.862  1.00  0.00     0.019 C 
ENDBRANCH  10  12
ENDBRANCH   1  10
TORSDOF 4
ENDMDL
MODEL 7
REMARK VINA RESULT:      -5.0      4.176      5.449
REMARK  4 active torsions:
REMARK  status: ('A' for Active; 'I' for Inactive)
REMARK    1  A    between atoms: C_5  and  C_6 
REMARK    2  A    between atoms: C_6  and  C_7 
REMARK    3  A    between atoms: C_7  and  N_8 
REMARK    4  A    between atoms: N_8  and  C_9 
ROOT
HETATM    1  C   UNL     1     -42.047 -49.346  12.097  1.00  0.00     0.276 C 
ENDROOT
BRANCH   1   2
HETATM    2  C   UNL     1     -41.522 -48.459  10.958  1.00  0.00     0.087 C 
BRANCH   2   3
HETATM    3  C   UNL     1     -42.590 -47.653  10.293  1.00  0.00     0.018 A 
HETATM    4  N   UNL     1     -43.877 -48.165  10.224  1.00  0.00    -0.357 N 
HETATM    5  C   UNL     1     -44.658 -47.327   9.575  1.00  0.00     0.046 A 
ATOM      6  HN  UNL     1     -44.174 -49.057  10.619  1.00  0.00     0.166 HD
HETATM    7  C   UNL     1     -46.094 -47.571   9.277  1.00  0.00     0.076 C 
HETATM    8  S   UNL     1     -43.914 -45.868   9.055  1.00  0.00    -0.087 SA
HETATM    9  C   UNL     1     -42.434 -46.404   9.721  1.00  0.00     0.076 A 
ENDBRANCH   2   3
ENDBRANCH   1   2
BRANCH   1  10
HETATM   10  N   UNL     1     -42.011 -50.784  11.784  1.00  0.00     0.088 N 
HETATM   11  H   UNL     1     -41.215 -50.988  11.181  1.00  0.00     0.316 HD
BRANCH  10  12
HETATM   12  C   UNL     1     -41.929 -51.605  12.987  1.00  0.00     0.225 C 
HETATM   13  C   UNL     1     -41.528 -53.066  12.673  1.00  0.00     0.040 C 
HETATM   14  C   UNL     1     -42.561 -53.889  13.467  1.00  0.00    -0.012 C 
HETATM   15  C   UNL     1     -43.904 -53.827  12.721  1.00  0.00     0.005 C 
HETATM   16  C   UNL     1     -42.836 -52.996  14.677  1.00  0.00     0.011 C 
HETATM   17  C   UNL     1     -44.366 -52.387  12.967  1.00  0.00     0.007 C 
HETATM   18  C   UNL     1     -43.226 -51.792  13.815  1.00  0.00     0.019 C 
ENDBRANCH  10  12
ENDBRANCH   1  10
TORSDOF 4
ENDMDL
MODEL 8
REMARK VINA RESULT:      -5.0      4.224      6.506
REMARK  4 active torsions:
REMARK  status: ('A' for Active; 'I' for Inactive)
REMARK    1  A    between atoms: C_5  and  C_6 
REMARK    2  A    between atoms: C_6  and  C_7 
REMARK    3  A    between atoms: C_7  and  N_8 
REMARK    4  A    between atoms: N_8  and  C_9 
ROOT
HETATM    1  C   UNL     1     -41.707 -49.818  11.986  1.00  0.00     0.276 C 
ENDROOT
BRANCH   1   2
HETATM    2  C   UNL     1     -42.146 -48.667  11.067  1.00  0.00     0.087 C 
BRANCH   2   3
HETATM    3  C   UNL     1     -41.429 -47.384  11.339  1.00  0.00     0.018 A 
HETATM    4  N   UNL     1     -40.743 -46.763  10.306  1.00  0.00    -0.357 N 
HETATM    5  C   UNL     1     -40.154 -45.673  10.752  1.00  0.00     0.046 A 
ATOM      6  HN  UNL     1     -40.702 -47.100   9.345  1.00  0.00     0.166 HD
HETATM    7  C   UNL     1     -39.297 -44.780   9.929  1.00  0.00     0.076 C 
HETATM    8  S   UNL     1     -40.425 -45.307  12.409  1.00  0.00    -0.087 SA
HETATM    9  C   UNL     1     -41.376 -46.720  12.550  1.00  0.00     0.076 A 
ENDBRANCH   2   3
ENDBRANCH   1   2
BRANCH   1  10
HETATM   10  N   UNL     1     -40.698 -50.700  11.378  1.00  0.00     0.088 N 
HETATM   11  H   UNL     1     -40.278 -50.242  10.570  1.00  0.00     0.316 HD
BRANCH  10  12
HETATM   12  C   UNL     1     -39.649 -51.066  12.324  1.00  0.00     0.225 C 
HETATM   13  C   UNL     1     -39.866 -50.426  13.715  1.00  0.00     0.040 C 
HETATM   14  C   UNL     1     -38.481 -49.834  14.045  1.00  0.00    -0.012 C 
HETATM   15  C   UNL     1     -38.290 -48.559  13.206  1.00  0.00     0.005 C 
HETATM   16  C   UNL     1     -37.530 -50.809  13.352  1.00  0.00     0.011 C 
HETATM   17  C   UNL     1     -38.087 -49.111  11.790  1.00  0.00     0.007 C 
HETATM   18  C   UNL     1     -38.199 -50.634  11.986  1.00  0.00     0.019 C 
ENDBRANCH  10  12
ENDBRANCH   1  10
TORSDOF 4
ENDMDL
MODEL 9
REMARK VINA RESULT:      -5.0      1.362      2.006
REMARK  4 active torsions:
REMARK  status: ('A' for Active; 'I' for Inactive)
REMARK    1  A    between atoms: C_5  and  C_6 
REMARK    2  A    between atoms: C_6  and  C_7 
REMARK    3  A    between atoms: C_7  and  N_8 
REMARK    4  A    between atoms: N_8  and  C_9 
ROOT
HETATM    1  C   UNL     1     -42.693 -54.207  14.417  1.00  0.00     0.276 C 
ENDROOT
BRANCH   1   2
HETATM    2  C   UNL     1     -41.885 -54.137  13.112  1.00  0.00     0.087 C 
BRANCH   2   3
HETATM    3  C   UNL     1     -41.033 -52.913  13.007  1.00  0.00     0.018 A 
HETATM    4  N   UNL     1     -41.345 -51.955  12.054  1.00  0.00    -0.357 N 
HETATM    5  C   UNL     1     -40.463 -50.979  12.096  1.00  0.00     0.046 A 
ATOM      6  HN  UNL     1     -42.139 -52.000  11.416  1.00  0.00     0.166 HD
HETATM    7  C   UNL     1     -40.462 -49.802  11.188  1.00  0.00     0.076 C 
HETATM    8  S   UNL     1     -39.248 -51.127  13.302  1.00  0.00    -0.087 SA
HETATM    9  C   UNL     1     -39.931 -52.616  13.786  1.00  0.00     0.076 A 
ENDBRANCH   2   3
ENDBRANCH   1   2
BRANCH   1  10
HETATM   10  N   UNL     1     -44.149 -54.233  14.202  1.00  0.00     0.088 N 
HETATM   11  H   UNL     1     -44.513 -55.164  14.403  1.00  0.00     0.316 HD
BRANCH  10  12
HETATM   12  C   UNL     1     -44.843 -53.254  15.032  1.00  0.00     0.225 C 
HETATM   13  C   UNL     1     -46.380 -53.341  14.880  1.00  0.00     0.040 C 
HETATM   14  C   UNL     1     -46.792 -51.871  14.665  1.00  0.00    -0.012 C 
HETATM   15  C   UNL     1     -46.416 -51.470  13.229  1.00  0.00     0.005 C 
HETATM   16  C   UNL     1     -45.748 -51.112  15.484  1.00  0.00     0.011 C 
HETATM   17  C   UNL     1     -44.887 -51.382  13.288  1.00  0.00     0.007 C 
HETATM   18  C   UNL     1     -44.569 -51.755  14.748  1.00  0.00     0.019 C 
ENDBRANCH  10  12
ENDBRANCH   1  10
TORSDOF 4
ENDMDL
