MODEL 1
REMARK VINA RESULT:      -6.0      0.000      0.000
REMARK  3 active torsions:
REMARK  status: ('A' for Active; 'I' for Inactive)
REMARK    1  A    between atoms: C_4  and  N_5 
REMARK       I    between atoms: N_5  and  C_6 
REMARK       I    between atoms: C_6  and  N_8 
REMARK    2  A    between atoms: N_8  and  C_9 
REMARK    3  A    between atoms: C_9  and  C_10 
REMARK       I    between atoms: C_10  and  N_12 
ROOT
HETATM    1  N   UNL     1     -41.983 -48.138   9.762  1.00  0.00    -0.302 N 
HETATM    2  C   UNL     1     -41.641 -48.579  11.021  1.00  0.00     0.321 C 
HETATM    3  O   UNL     1     -42.316 -48.467  12.038  1.00  0.00    -0.247 OA
HETATM    4  N   UNL     1     -40.436 -49.248  11.047  1.00  0.00    -0.334 N 
HETATM    5  H   UNL     1     -41.521 -48.587   8.985  1.00  0.00     0.171 HD
HETATM    6  H   UNL     1     -39.711 -48.975  10.394  1.00  0.00     0.164 HD
ENDROOT
BRANCH   1   7
HETATM    7  C   UNL     1     -43.140 -47.420   9.497  1.00  0.00     0.096 A 
HETATM    8  C   UNL     1     -44.429 -47.884   9.346  1.00  0.00     0.063 A 
HETATM    9  C   UNL     1     -45.332 -46.788   9.104  1.00  0.00     0.014 A 
HETATM   10  C   UNL     1     -46.809 -46.871   8.956  1.00  0.00     0.068 C 
HETATM   11  N   UNL     1     -44.772 -45.582   9.014  1.00  0.00    -0.329 N 
HETATM   12  S   UNL     1     -43.145 -45.733   9.248  1.00  0.00     0.004 SA
ATOM     13  HN  UNL     1     -45.268 -44.709   8.831  1.00  0.00     0.174 HD
ENDBRANCH   1   7
BRANCH   4  14
HETATM   14  C   UNL     1     -39.988 -49.694  12.355  1.00  0.00     0.227 C 
BRANCH  14  15
HETATM   15  C   UNL     1     -39.556 -51.155  12.438  1.00  0.00     0.237 C 
HETATM   16  O   UNL     1     -38.385 -51.494  12.267  1.00  0.00    -0.272 OA
HETATM   17  N   UNL     1     -40.549 -52.037  12.830  1.00  0.00    -0.351 N 
HETATM   18  C   UNL     1     -40.256 -53.413  13.162  1.00  0.00     0.126 C 
HETATM   19  C   UNL     1     -41.977 -51.836  12.677  1.00  0.00     0.126 C 
HETATM   20  C   UNL     1     -41.579 -54.018  13.621  1.00  0.00     0.021 C 
HETATM   21  C   UNL     1     -42.595 -52.878  13.589  1.00  0.00     0.021 C 
ENDBRANCH  14  15
ENDBRANCH   4  14
TORSDOF 3
ENDMDL
MODEL 2
REMARK VINA RESULT:      -5.9      3.425      6.952
REMARK  3 active torsions:
REMARK  status: ('A' for Active; 'I' for Inactive)
REMARK    1  A    between atoms: C_4  and  N_5 
REMARK       I    between atoms: N_5  and  C_6 
REMARK       I    between atoms: C_6  and  N_8 
REMARK    2  A    between atoms: N_8  and  C_9 
REMARK    3  A    between atoms: C_9  and  C_10 
REMARK       I    between atoms: C_10  and  N_12 
ROOT
HETATM    1  N   UNL     1     -41.978 -52.288  11.667  1.00  0.00    -0.302 N 
HETATM    2  C   UNL     1     -41.602 -51.009  12.010  1.00  0.00     0.321 C 
HETATM    3  O   UNL     1     -41.749 -50.477  13.105  1.00  0.00    -0.247 OA
HETATM    4  N   UNL     1     -40.954 -50.347  10.989  1.00  0.00    -0.334 N 
HETATM    5  H   UNL     1     -41.501 -52.704  10.880  1.00  0.00     0.171 HD
HETATM    6  H   UNL     1     -41.208 -50.557  10.031  1.00  0.00     0.164 HD
ENDROOT
BRANCH   1   7
HETATM    7  C   UNL     1     -42.663 -53.135  12.526  1.00  0.00     0.096 A 
HETATM    8  C   UNL     1     -44.008 -53.437  12.550  1.00  0.00     0.063 A 
HETATM    9  C   UNL     1     -44.290 -54.386  13.596  1.00  0.00     0.014 A 
HETATM   10  C   UNL     1     -45.606 -55.009  13.899  1.00  0.00     0.068 C 
HETATM   11  N   UNL     1     -43.254 -54.739  14.357  1.00  0.00    -0.329 N 
HETATM   12  S   UNL     1     -41.905 -53.958  13.813  1.00  0.00     0.004 SA
ATOM     13  HN  UNL     1     -43.289 -55.386  15.145  1.00  0.00     0.174 HD
ENDBRANCH   1   7
BRANCH   4  14
HETATM   14  C   UNL     1     -40.577 -48.971  11.266  1.00  0.00     0.227 C 
BRANCH  14  15
HETATM   15  C   UNL     1     -41.499 -47.908  10.675  1.00  0.00     0.237 C 
HETATM   16  O   UNL     1     -42.554 -48.205  10.114  1.00  0.00    -0.272 OA
HETATM   17  N   UNL     1     -41.117 -46.600  10.922  1.00  0.00    -0.351 N 
HETATM   18  C   UNL     1     -41.984 -45.484  10.620  1.00  0.00     0.126 C 
HETATM   19  C   UNL     1     -39.768 -46.144  11.202  1.00  0.00     0.126 C 
HETATM   20  C   UNL     1     -41.246 -44.243  11.110  1.00  0.00     0.021 C 
HETATM   21  C   UNL     1     -39.961 -44.748  11.761  1.00  0.00     0.021 C 
ENDBRANCH  14  15
ENDBRANCH   4  14
TORSDOF 3
ENDMDL
MODEL 3
REMARK VINA RESULT:      -5.9      3.377      3.910
REMARK  3 active torsions:
REMARK  status: ('A' for Active; 'I' for Inactive)
REMARK    1  A    between atoms: C_4  and  N_5 
REMARK       I    between atoms: N_5  and  C_6 
REMARK       I    between atoms: C_6  and  N_8 
REMARK    2  A    between atoms: N_8  and  C_9 
REMARK    3  A    between atoms: C_9  and  C_10 
REMARK       I    between atoms: C_10  and  N_12 
ROOT
HETATM    1  N   UNL     1     -42.049 -47.111   9.673  1.00  0.00    -0.302 N 
HETATM    2  C   UNL     1     -41.432 -47.863  10.647  1.00  0.00     0.321 C 
HETATM    3  O   UNL     1     -41.853 -48.907  11.135  1.00  0.00    -0.247 OA
HETATM    4  N   UNL     1     -40.203 -47.360  11.018  1.00  0.00    -0.334 N 
HETATM    5  H   UNL     1     -41.456 -46.498   9.133  1.00  0.00     0.171 HD
HETATM    6  H   UNL     1     -40.056 -46.358  10.986  1.00  0.00     0.164 HD
ENDROOT
BRANCH   1   7
HETATM    7  C   UNL     1     -43.302 -47.412   9.160  1.00  0.00     0.096 A 
HETATM    8  C   UNL     1     -44.532 -47.320   9.776  1.00  0.00     0.063 A 
HETATM    9  C   UNL     1     -45.579 -47.710   8.866  1.00  0.00     0.014 A 
HETATM   10  C   UNL     1     -47.041 -47.682   9.131  1.00  0.00     0.068 C 
HETATM   11  N   UNL     1     -45.180 -48.129   7.665  1.00  0.00    -0.329 N 
HETATM   12  S   UNL     1     -43.533 -48.037   7.590  1.00  0.00     0.004 SA
ATOM     13  HN  UNL     1     -45.792 -48.454   6.916  1.00  0.00     0.174 HD
ENDBRANCH   1   7
BRANCH   4  14
HETATM   14  C   UNL     1     -39.521 -48.076  12.083  1.00  0.00     0.227 C 
BRANCH  14  15
HETATM   15  C   UNL     1     -39.188 -47.248  13.320  1.00  0.00     0.237 C 
HETATM   16  O   UNL     1     -39.645 -46.117  13.484  1.00  0.00    -0.272 OA
HETATM   17  N   UNL     1     -38.439 -47.906  14.280  1.00  0.00    -0.351 N 
HETATM   18  C   UNL     1     -38.220 -47.343  15.593  1.00  0.00     0.126 C 
HETATM   19  C   UNL     1     -37.550 -49.029  14.046  1.00  0.00     0.126 C 
HETATM   20  C   UNL     1     -37.434 -48.395  16.369  1.00  0.00     0.021 C 
HETATM   21  C   UNL     1     -37.298 -49.593  15.431  1.00  0.00     0.021 C 
ENDBRANCH  14  15
ENDBRANCH   4  14
TORSDOF 3
ENDMDL
MODEL 4
REMARK VINA RESULT:      -5.9      2.120      3.060
REMARK  3 active torsions:
REMARK  status: ('A' for Active; 'I' for Inactive)
REMARK    1  A    between atoms: C_4  and  N_5 
REMARK       I    between atoms: N_5  and  C_6 
REMARK       I    between atoms: C_6  and  N_8 
REMARK    2  A    between atoms: N_8  and  C_9 
REMARK    3  A    between atoms: C_9  and  C_10 
REMARK       I    between atoms: C_10  and  N_12 
ROOT
HETATM    1  N   UNL     1     -41.977 -48.188   9.498  1.00  0.00    -0.302 N 
HETATM    2  C   UNL     1     -41.594 -48.812  10.664  1.00  0.00     0.321 C 
HETATM    3  O   UNL     1     -42.235 -48.860  11.708  1.00  0.00    -0.247 OA
HETATM    4  N   UNL     1     -40.387 -49.469  10.550  1.00  0.00    -0.334 N 
HETATM    5  H   UNL     1     -41.540 -48.511   8.648  1.00  0.00     0.171 HD
HETATM    6  H   UNL     1     -39.685 -49.096   9.923  1.00  0.00     0.164 HD
ENDROOT
BRANCH   1   7
HETATM    7  C   UNL     1     -43.144 -47.447   9.382  1.00  0.00     0.096 A 
HETATM    8  C   UNL     1     -44.432 -47.890   9.172  1.00  0.00     0.063 A 
HETATM    9  C   UNL     1     -45.347 -46.778   9.141  1.00  0.00     0.014 A 
HETATM   10  C   UNL     1     -46.826 -46.848   9.005  1.00  0.00     0.068 C 
HETATM   11  N   UNL     1     -44.798 -45.569   9.255  1.00  0.00    -0.329 N 
HETATM   12  S   UNL     1     -43.165 -45.742   9.433  1.00  0.00     0.004 SA
ATOM     13  HN  UNL     1     -45.302 -44.683   9.236  1.00  0.00     0.174 HD
ENDBRANCH   1   7
BRANCH   4  14
HETATM   14  C   UNL     1     -39.896 -50.105  11.761  1.00  0.00     0.227 C 
BRANCH  14  15
HETATM   15  C   UNL     1     -38.584 -49.549  12.306  1.00  0.00     0.237 C 
HETATM   16  O   UNL     1     -37.546 -49.574  11.645  1.00  0.00    -0.272 OA
HETATM   17  N   UNL     1     -38.682 -48.917  13.535  1.00  0.00    -0.351 N 
HETATM   18  C   UNL     1     -37.586 -48.155  14.088  1.00  0.00     0.126 C 
HETATM   19  C   UNL     1     -39.700 -49.160  14.539  1.00  0.00     0.126 C 
HETATM   20  C   UNL     1     -38.112 -47.558  15.389  1.00  0.00     0.021 C 
HETATM   21  C   UNL     1     -39.578 -47.977  15.480  1.00  0.00     0.021 C 
ENDBRANCH  14  15
ENDBRANCH   4  14
TORSDOF 3
ENDMDL
MODEL 5
REMARK VINA RESULT:      -5.8      3.134      4.490
REMARK  3 active torsions:
REMARK  status: ('A' for Active; 'I' for Inactive)
REMARK    1  A    between atoms: C_4  and  N_5 
REMARK       I    between atoms: N_5  and  C_6 
REMARK       I    between atoms: C_6  and  N_8 
REMARK    2  A    between atoms: N_8  and  C_9 
REMARK    3  A    between atoms: C_9  and  C_10 
REMARK       I    between atoms: C_10  and  N_12 
ROOT
HETATM    1  N   UNL     1     -41.599 -49.629  10.999  1.00  0.00    -0.302 N 
HETATM    2  C   UNL     1     -42.249 -50.131  12.104  1.00  0.00     0.321 C 
HETATM    3  O   UNL     1     -42.815 -49.478  12.974  1.00  0.00    -0.247 OA
HETATM    4  N   UNL     1     -42.270 -51.510  12.135  1.00  0.00    -0.334 N 
HETATM    5  H   UNL     1     -41.490 -50.256  10.216  1.00  0.00     0.171 HD
HETATM    6  H   UNL     1     -41.492 -52.019  11.733  1.00  0.00     0.164 HD
ENDROOT
BRANCH   1   7
HETATM    7  C   UNL     1     -41.434 -48.272  10.767  1.00  0.00     0.096 A 
HETATM    8  C   UNL     1     -40.429 -47.436  11.207  1.00  0.00     0.063 A 
HETATM    9  C   UNL     1     -40.635 -46.100  10.709  1.00  0.00     0.014 A 
HETATM   10  C   UNL     1     -39.736 -44.932  10.905  1.00  0.00     0.068 C 
HETATM   11  N   UNL     1     -41.743 -45.909   9.994  1.00  0.00    -0.329 N 
HETATM   12  S   UNL     1     -42.554 -47.342   9.878  1.00  0.00     0.004 SA
ATOM     13  HN  UNL     1     -42.042 -45.023   9.586  1.00  0.00     0.174 HD
ENDBRANCH   1   7
BRANCH   4  14
HETATM   14  C   UNL     1     -42.893 -52.107  13.304  1.00  0.00     0.227 C 
BRANCH  14  15
HETATM   15  C   UNL     1     -44.323 -52.602  13.103  1.00  0.00     0.237 C 
HETATM   16  O   UNL     1     -44.614 -53.391  12.203  1.00  0.00    -0.272 OA
HETATM   17  N   UNL     1     -45.225 -52.193  14.070  1.00  0.00    -0.351 N 
HETATM   18  C   UNL     1     -46.560 -52.742  14.146  1.00  0.00     0.126 C 
HETATM   19  C   UNL     1     -45.107 -51.009  14.900  1.00  0.00     0.126 C 
HETATM   20  C   UNL     1     -47.199 -52.107  15.377  1.00  0.00     0.021 C 
HETATM   21  C   UNL     1     -46.116 -51.235  16.009  1.00  0.00     0.021 C 
ENDBRANCH  14  15
ENDBRANCH   4  14
TORSDOF 3
ENDMDL
MODEL 6
REMARK VINA RESULT:      -5.7      3.632      5.408
REMARK  3 active torsions:
REMARK  status: ('A' for Active; 'I' for Inactive)
REMARK    1  A    between atoms: C_4  and  N_5 
REMARK       I    between atoms: N_5  and  C_6 
REMARK       I    between atoms: C_6  and  N_8 
REMARK    2  A    between atoms: N_8  and  C_9 
REMARK    3  A    between atoms: C_9  and  C_10 
REMARK       I    between atoms: C_10  and  N_12 
ROOT
HETATM    1  N   UNL     1     -41.524 -51.211  11.433  1.00  0.00    -0.302 N 
HETATM    2  C   UNL     1     -42.035 -51.769  12.583  1.00  0.00     0.321 C 
HETATM    3  O   UNL     1     -41.970 -51.296  13.712  1.00  0.00    -0.247 OA
HETATM    4  N   UNL     1     -42.719 -52.944  12.351  1.00  0.00    -0.334 N 
HETATM    5  H   UNL     1     -41.936 -51.512  10.562  1.00  0.00     0.171 HD
HETATM    6  H   UNL     1     -42.420 -53.542  11.590  1.00  0.00     0.164 HD
ENDROOT
BRANCH   1   7
HETATM    7  C   UNL     1     -40.780 -50.040  11.423  1.00  0.00     0.096 A 
HETATM    8  C   UNL     1     -41.187 -48.760  11.108  1.00  0.00     0.063 A 
HETATM    9  C   UNL     1     -40.092 -47.836  11.254  1.00  0.00     0.014 A 
HETATM   10  C   UNL     1     -40.145 -46.361  11.074  1.00  0.00     0.068 C 
HETATM   11  N   UNL     1     -38.919 -48.371  11.594  1.00  0.00    -0.329 N 
HETATM   12  S   UNL     1     -39.112 -50.001  11.776  1.00  0.00     0.004 SA
ATOM     13  HN  UNL     1     -38.047 -47.858  11.721  1.00  0.00     0.174 HD
ENDBRANCH   1   7
BRANCH   4  14
HETATM   14  C   UNL     1     -43.238 -53.616  13.530  1.00  0.00     0.227 C 
BRANCH  14  15
HETATM   15  C   UNL     1     -44.747 -53.841  13.544  1.00  0.00     0.237 C 
HETATM   16  O   UNL     1     -45.262 -54.814  12.992  1.00  0.00    -0.272 OA
HETATM   17  N   UNL     1     -45.465 -52.943  14.316  1.00  0.00    -0.351 N 
HETATM   18  C   UNL     1     -46.867 -53.140  14.607  1.00  0.00     0.126 C 
HETATM   19  C   UNL     1     -45.051 -51.597  14.665  1.00  0.00     0.126 C 
HETATM   20  C   UNL     1     -47.261 -51.999  15.539  1.00  0.00     0.021 C 
HETATM   21  C   UNL     1     -45.980 -51.208  15.798  1.00  0.00     0.021 C 
ENDBRANCH  14  15
ENDBRANCH   4  14
TORSDOF 3
ENDMDL
MODEL 7
REMARK VINA RESULT:      -5.6      2.508      3.400
REMARK  3 active torsions:
REMARK  status: ('A' for Active; 'I' for Inactive)
REMARK    1  A    between atoms: C_4  and  N_5 
REMARK       I    between atoms: N_5  and  C_6 
REMARK       I    between atoms: C_6  and  N_8 
REMARK    2  A    between atoms: N_8  and  C_9 
REMARK    3  A    between atoms: C_9  and  C_10 
REMARK       I    between atoms: C_10  and  N_12 
ROOT
HETATM    1  N   UNL     1     -41.136 -49.108  10.542  1.00  0.00    -0.302 N 
HETATM    2  C   UNL     1     -41.114 -49.927  11.647  1.00  0.00     0.321 C 
HETATM    3  O   UNL     1     -41.323 -49.588  12.807  1.00  0.00    -0.247 OA
HETATM    4  N   UNL     1     -40.883 -51.249  11.332  1.00  0.00    -0.334 N 
HETATM    5  H   UNL     1     -41.292 -49.555   9.650  1.00  0.00     0.171 HD
HETATM    6  H   UNL     1     -40.301 -51.466  10.532  1.00  0.00     0.164 HD
ENDROOT
BRANCH   1   7
HETATM    7  C   UNL     1     -41.330 -47.736  10.616  1.00  0.00     0.096 A 
HETATM    8  C   UNL     1     -40.413 -46.749  10.913  1.00  0.00     0.063 A 
HETATM    9  C   UNL     1     -41.037 -45.452  10.855  1.00  0.00     0.014 A 
HETATM   10  C   UNL     1     -40.370 -44.137  11.045  1.00  0.00     0.068 C 
HETATM   11  N   UNL     1     -42.344 -45.445  10.596  1.00  0.00    -0.329 N 
HETATM   12  S   UNL     1     -42.852 -47.002  10.386  1.00  0.00     0.004 SA
ATOM     13  HN  UNL     1     -42.934 -44.615  10.537  1.00  0.00     0.174 HD
ENDBRANCH   1   7
BRANCH   4  14
HETATM   14  C   UNL     1     -40.792 -52.162  12.459  1.00  0.00     0.227 C 
BRANCH  14  15
HETATM   15  C   UNL     1     -42.096 -52.851  12.850  1.00  0.00     0.237 C 
HETATM   16  O   UNL     1     -43.107 -52.766  12.153  1.00  0.00    -0.272 OA
HETATM   17  N   UNL     1     -42.015 -53.663  13.969  1.00  0.00    -0.351 N 
HETATM   18  C   UNL     1     -43.094 -54.548  14.345  1.00  0.00     0.126 C 
HETATM   19  C   UNL     1     -41.051 -53.539  15.045  1.00  0.00     0.126 C 
HETATM   20  C   UNL     1     -42.591 -55.320  15.561  1.00  0.00     0.021 C 
HETATM   21  C   UNL     1     -41.152 -54.859  15.784  1.00  0.00     0.021 C 
ENDBRANCH  14  15
ENDBRANCH   4  14
TORSDOF 3
ENDMDL
MODEL 8
REMARK VINA RESULT:      -5.6      3.454      3.809
REMARK  3 active torsions:
REMARK  status: ('A' for Active; 'I' for Inactive)
REMARK    1  A    between atoms: C_4  and  N_5 
REMARK       I    between atoms: N_5  and  C_6 
REMARK       I    between atoms: C_6  and  N_8 
REMARK    2  A    between atoms: N_8  and  C_9 
REMARK    3  A    between atoms: C_9  and  C_10 
REMARK       I    between atoms: C_10  and  N_12 
ROOT
HETATM    1  N   UNL     1     -39.807 -48.766  11.375  1.00  0.00    -0.302 N 
HETATM    2  C   UNL     1     -40.807 -49.644  11.728  1.00  0.00     0.321 C 
HETATM    3  O   UNL     1     -41.866 -49.358  12.276  1.00  0.00    -0.247 OA
HETATM    4  N   UNL     1     -40.542 -50.942  11.347  1.00  0.00    -0.334 N 
HETATM    5  H   UNL     1     -39.177 -49.068  10.647  1.00  0.00     0.171 HD
HETATM    6  H   UNL     1     -39.580 -51.258  11.323  1.00  0.00     0.164 HD
ENDROOT
BRANCH   1   7
HETATM    7  C   UNL     1     -39.844 -47.412  11.675  1.00  0.00     0.096 A 
HETATM    8  C   UNL     1     -40.126 -46.350  10.842  1.00  0.00     0.063 A 
HETATM    9  C   UNL     1     -40.078 -45.111  11.575  1.00  0.00     0.014 A 
HETATM   10  C   UNL     1     -40.389 -43.756  11.049  1.00  0.00     0.068 C 
HETATM   11  N   UNL     1     -39.725 -45.207  12.857  1.00  0.00    -0.329 N 
HETATM   12  S   UNL     1     -39.470 -46.797  13.221  1.00  0.00     0.004 SA
ATOM     13  HN  UNL     1     -39.629 -44.426  13.506  1.00  0.00     0.174 HD
ENDBRANCH   1   7
BRANCH   4  14
HETATM   14  C   UNL     1     -41.533 -51.931  11.738  1.00  0.00     0.227 C 
BRANCH  14  15
HETATM   15  C   UNL     1     -41.046 -52.993  12.720  1.00  0.00     0.237 C 
HETATM   16  O   UNL     1     -39.849 -53.155  12.958  1.00  0.00    -0.272 OA
HETATM   17  N   UNL     1     -42.049 -53.665  13.399  1.00  0.00    -0.351 N 
HETATM   18  C   UNL     1     -41.760 -54.543  14.510  1.00  0.00     0.126 C 
HETATM   19  C   UNL     1     -43.415 -53.841  12.945  1.00  0.00     0.126 C 
HETATM   20  C   UNL     1     -43.114 -55.012  15.030  1.00  0.00     0.021 C 
HETATM   21  C   UNL     1     -44.161 -54.287  14.188  1.00  0.00     0.021 C 
ENDBRANCH  14  15
ENDBRANCH   4  14
TORSDOF 3
ENDMDL
MODEL 9
REMARK VINA RESULT:      -5.5      2.781      3.663
REMARK  3 active torsions:
REMARK  status: ('A' for Active; 'I' for Inactive)
REMARK    1  A    between atoms: C_4  and  N_5 
REMARK       I    between atoms: N_5  and  C_6 
REMARK       I    between atoms: C_6  and  N_8 
REMARK    2  A    between atoms: N_8  and  C_9 
REMARK    3  A    between atoms: C_9  and  C_10 
REMARK       I    between atoms: C_10  and  N_12 
ROOT
HETATM    1  N   UNL     1     -40.700 -50.365  10.938  1.00  0.00    -0.302 N 
HETATM    2  C   UNL     1     -41.321 -51.214  11.826  1.00  0.00     0.321 C 
HETATM    3  O   UNL     1     -42.074 -50.889  12.737  1.00  0.00    -0.247 OA
HETATM    4  N   UNL     1     -41.066 -52.544  11.565  1.00  0.00    -0.334 N 
HETATM    5  H   UNL     1     -40.406 -50.766  10.060  1.00  0.00     0.171 HD
HETATM    6  H   UNL     1     -40.173 -52.800  11.163  1.00  0.00     0.164 HD
ENDROOT
BRANCH   1   7
HETATM    7  C   UNL     1     -40.793 -48.983  11.017  1.00  0.00     0.096 A 
HETATM    8  C   UNL     1     -41.721 -48.145  10.436  1.00  0.00     0.063 A 
HETATM    9  C   UNL     1     -41.459 -46.776  10.802  1.00  0.00     0.014 A 
HETATM   10  C   UNL     1     -42.274 -45.588  10.434  1.00  0.00     0.068 C 
HETATM   11  N   UNL     1     -40.378 -46.571  11.553  1.00  0.00    -0.329 N 
HETATM   12  S   UNL     1     -39.664 -48.027  11.864  1.00  0.00     0.004 SA
ATOM     13  HN  UNL     1     -40.046 -45.664  11.882  1.00  0.00     0.174 HD
ENDBRANCH   1   7
BRANCH   4  14
HETATM   14  C   UNL     1     -41.648 -53.494  12.498  1.00  0.00     0.227 C 
BRANCH  14  15
HETATM   15  C   UNL     1     -40.688 -54.059  13.541  1.00  0.00     0.237 C 
HETATM   16  O   UNL     1     -39.468 -54.035  13.377  1.00  0.00    -0.272 OA
HETATM   17  N   UNL     1     -41.284 -54.485  14.715  1.00  0.00    -0.351 N 
HETATM   18  C   UNL     1     -40.504 -54.845  15.878  1.00  0.00     0.126 C 
HETATM   19  C   UNL     1     -42.661 -54.916  14.865  1.00  0.00     0.126 C 
HETATM   20  C   UNL     1     -41.516 -55.169  16.971  1.00  0.00     0.021 C 
HETATM   21  C   UNL     1     -42.891 -54.898  16.364  1.00  0.00     0.021 C 
ENDBRANCH  14  15
ENDBRANCH   4  14
TORSDOF 3
ENDMDL
