MODEL 1
REMARK VINA RESULT:      -5.9      0.000      0.000
REMARK  4 active torsions:
REMARK  status: ('A' for Active; 'I' for Inactive)
REMARK    1  A    between atoms: C_2  and  C_3 
REMARK       I    between atoms: N_6  and  C_10 
REMARK       I    between atoms: C_10  and  N_12 
REMARK    2  A    between atoms: N_12  and  C_13 
REMARK    3  A    between atoms: C_13  and  C_14 
REMARK    4  A    between atoms: C_14  and  C_15 
ROOT
HETATM    1  C   UNL     1     -38.973 -49.837  12.344  1.00  0.00     0.073 C 
HETATM    2  C   UNL     1     -37.581 -50.136  11.766  1.00  0.00     0.047 C 
HETATM    3  C   UNL     1     -40.017 -49.925  11.191  1.00  0.00     0.165 C 
HETATM    4  N   UNL     1     -41.383 -49.973  11.725  1.00  0.00    -0.329 N 
HETATM    5  C   UNL     1     -41.563 -51.084  12.658  1.00  0.00     0.153 C 
HETATM    6  C   UNL     1     -40.558 -50.949  13.806  1.00  0.00     0.189 C 
HETATM    7  O   UNL     1     -39.206 -50.876  13.323  1.00  0.00    -0.377 OA
HETATM    8  C   UNL     1     -42.283 -48.927  11.798  1.00  0.00     0.318 C 
HETATM    9  O   UNL     1     -43.322 -48.995  12.453  1.00  0.00    -0.247 OA
HETATM   10  N   UNL     1     -41.932 -47.779  11.134  1.00  0.00    -0.343 N 
HETATM   11  H   UNL     1     -41.432 -47.923  10.270  1.00  0.00     0.164 HD
ENDROOT
BRANCH  10  12
HETATM   12  C   UNL     1     -42.882 -46.676  11.122  1.00  0.00     0.130 C 
BRANCH  12  13
HETATM   13  C   UNL     1     -43.301 -46.227   9.721  1.00  0.00     0.078 C 
BRANCH  13  14
HETATM   14  C   UNL     1     -44.435 -47.027   9.165  1.00  0.00     0.031 A 
HETATM   15  C   UNL     1     -45.742 -47.121   9.596  1.00  0.00     0.045 A 
HETATM   16  C   UNL     1     -46.355 -48.022   8.711  1.00  0.00     0.109 A 
HETATM   17  N   UNL     1     -45.511 -48.470   7.783  1.00  0.00    -0.310 N 
HETATM   18  N   UNL     1     -44.345 -47.867   8.082  1.00  0.00    -0.301 N 
ATOM     19  HN  UNL     1     -45.704 -49.121   7.022  1.00  0.00     0.186 HD
HETATM   20  C   UNL     1     -43.180 -48.166   7.282  1.00  0.00     0.177 C 
ENDBRANCH  13  14
ENDBRANCH  12  13
ENDBRANCH  10  12
BRANCH   1  21
HETATM   21  C   UNL     1     -39.006 -48.424  12.979  1.00  0.00     0.035 C 
HETATM   22  C   UNL     1     -37.917 -48.149  14.006  1.00  0.00     0.008 C 
ENDBRANCH   1  21
TORSDOF 4
ENDMDL
MODEL 2
REMARK VINA RESULT:      -5.8      3.277      6.271
REMARK  4 active torsions:
REMARK  status: ('A' for Active; 'I' for Inactive)
REMARK    1  A    between atoms: C_2  and  C_3 
REMARK       I    between atoms: N_6  and  C_10 
REMARK       I    between atoms: C_10  and  N_12 
REMARK    2  A    between atoms: N_12  and  C_13 
REMARK    3  A    between atoms: C_13  and  C_14 
REMARK    4  A    between atoms: C_14  and  C_15 
ROOT
HETATM    1  C   UNL     1     -43.388 -47.249   9.132  1.00  0.00     0.073 C 
HETATM    2  C   UNL     1     -43.416 -47.627   7.642  1.00  0.00     0.047 C 
HETATM    3  C   UNL     1     -42.296 -48.106   9.838  1.00  0.00     0.165 C 
HETATM    4  N   UNL     1     -41.995 -47.573  11.172  1.00  0.00    -0.329 N 
HETATM    5  C   UNL     1     -41.580 -46.171  11.115  1.00  0.00     0.153 C 
HETATM    6  C   UNL     1     -42.689 -45.342  10.459  1.00  0.00     0.189 C 
HETATM    7  O   UNL     1     -43.031 -45.847   9.157  1.00  0.00    -0.377 OA
HETATM    8  C   UNL     1     -42.457 -48.052  12.382  1.00  0.00     0.318 C 
HETATM    9  O   UNL     1     -42.335 -47.422  13.431  1.00  0.00    -0.247 OA
HETATM   10  N   UNL     1     -43.108 -49.259  12.346  1.00  0.00    -0.343 N 
HETATM   11  H   UNL     1     -42.746 -49.918  11.675  1.00  0.00     0.164 HD
ENDROOT
BRANCH  10  12
HETATM   12  C   UNL     1     -43.549 -49.838  13.607  1.00  0.00     0.130 C 
BRANCH  12  13
HETATM   13  C   UNL     1     -43.546 -51.368  13.627  1.00  0.00     0.078 C 
BRANCH  13  14
HETATM   14  C   UNL     1     -44.889 -51.952  13.928  1.00  0.00     0.031 A 
HETATM   15  C   UNL     1     -45.975 -51.383  14.559  1.00  0.00     0.045 A 
HETATM   16  C   UNL     1     -46.955 -52.389  14.578  1.00  0.00     0.109 A 
HETATM   17  N   UNL     1     -46.534 -53.513  14.002  1.00  0.00    -0.310 N 
HETATM   18  N   UNL     1     -45.272 -53.236  13.625  1.00  0.00    -0.301 N 
ATOM     19  HN  UNL     1     -47.049 -54.385  13.877  1.00  0.00     0.186 HD
HETATM   20  C   UNL     1     -44.489 -54.272  12.992  1.00  0.00     0.177 C 
ENDBRANCH  13  14
ENDBRANCH  12  13
ENDBRANCH  10  12
BRANCH   1  21
HETATM   21  C   UNL     1     -44.768 -47.508   9.785  1.00  0.00     0.035 C 
HETATM   22  C   UNL     1     -45.894 -47.835   8.815  1.00  0.00     0.008 C 
ENDBRANCH   1  21
TORSDOF 4
ENDMDL
MODEL 3
REMARK VINA RESULT:      -5.8      3.845      6.787
REMARK  4 active torsions:
REMARK  status: ('A' for Active; 'I' for Inactive)
REMARK    1  A    between atoms: C_2  and  C_3 
REMARK       I    between atoms: N_6  and  C_10 
REMARK       I    between atoms: C_10  and  N_12 
REMARK    2  A    between atoms: N_12  and  C_13 
REMARK    3  A    between atoms: C_13  and  C_14 
REMARK    4  A    between atoms: C_14  and  C_15 
ROOT
HETATM    1  C   UNL     1     -45.947 -52.569  14.044  1.00  0.00     0.073 C 
HETATM    2  C   UNL     1     -46.949 -51.584  14.668  1.00  0.00     0.047 C 
HETATM    3  C   UNL     1     -44.558 -52.353  14.714  1.00  0.00     0.165 C 
HETATM    4  N   UNL     1     -43.650 -53.463  14.405  1.00  0.00    -0.329 N 
HETATM    5  C   UNL     1     -44.211 -54.752  14.807  1.00  0.00     0.153 C 
HETATM    6  C   UNL     1     -45.554 -54.962  14.099  1.00  0.00     0.189 C 
HETATM    7  O   UNL     1     -46.467 -53.883  14.358  1.00  0.00    -0.377 OA
HETATM    8  C   UNL     1     -42.644 -53.474  13.458  1.00  0.00     0.318 C 
HETATM    9  O   UNL     1     -42.074 -54.507  13.112  1.00  0.00    -0.247 OA
HETATM   10  N   UNL     1     -42.340 -52.265  12.884  1.00  0.00    -0.343 N 
HETATM   11  H   UNL     1     -42.411 -51.471  13.501  1.00  0.00     0.164 HD
ENDROOT
BRANCH  10  12
HETATM   12  C   UNL     1     -41.238 -52.214  11.935  1.00  0.00     0.130 C 
BRANCH  12  13
HETATM   13  C   UNL     1     -40.034 -51.404  12.418  1.00  0.00     0.078 C 
BRANCH  13  14
HETATM   14  C   UNL     1     -40.073 -49.976  11.975  1.00  0.00     0.031 A 
HETATM   15  C   UNL     1     -41.149 -49.122  11.850  1.00  0.00     0.045 A 
HETATM   16  C   UNL     1     -40.604 -47.915  11.385  1.00  0.00     0.109 A 
HETATM   17  N   UNL     1     -39.284 -47.985  11.226  1.00  0.00    -0.310 N 
HETATM   18  N   UNL     1     -38.979 -49.249  11.576  1.00  0.00    -0.301 N 
ATOM     19  HN  UNL     1     -38.650 -47.251  10.911  1.00  0.00     0.186 HD
HETATM   20  C   UNL     1     -37.605 -49.687  11.480  1.00  0.00     0.177 C 
ENDBRANCH  13  14
ENDBRANCH  12  13
ENDBRANCH  10  12
BRANCH   1  21
HETATM   21  C   UNL     1     -45.839 -52.339  12.516  1.00  0.00     0.035 C 
HETATM   22  C   UNL     1     -47.049 -51.678  11.872  1.00  0.00     0.008 C 
ENDBRANCH   1  21
TORSDOF 4
ENDMDL
MODEL 4
REMARK VINA RESULT:      -5.8      3.227      5.217
REMARK  4 active torsions:
REMARK  status: ('A' for Active; 'I' for Inactive)
REMARK    1  A    between atoms: C_2  and  C_3 
REMARK       I    between atoms: N_6  and  C_10 
REMARK       I    between atoms: C_10  and  N_12 
REMARK    2  A    between atoms: N_12  and  C_13 
REMARK    3  A    between atoms: C_13  and  C_14 
REMARK    4  A    between atoms: C_14  and  C_15 
ROOT
HETATM    1  C   UNL     1     -45.780 -52.406  13.653  1.00  0.00     0.073 C 
HETATM    2  C   UNL     1     -46.967 -52.504  14.624  1.00  0.00     0.047 C 
HETATM    3  C   UNL     1     -44.536 -51.899  14.441  1.00  0.00     0.165 C 
HETATM    4  N   UNL     1     -43.308 -52.093  13.661  1.00  0.00    -0.329 N 
HETATM    5  C   UNL     1     -43.126 -53.490  13.272  1.00  0.00     0.153 C 
HETATM    6  C   UNL     1     -44.340 -53.951  12.459  1.00  0.00     0.189 C 
HETATM    7  O   UNL     1     -45.569 -53.757  13.180  1.00  0.00    -0.377 OA
HETATM    8  C   UNL     1     -42.626 -51.135  12.934  1.00  0.00     0.318 C 
HETATM    9  O   UNL     1     -41.735 -51.422  12.138  1.00  0.00    -0.247 OA
HETATM   10  N   UNL     1     -43.030 -49.837  13.115  1.00  0.00    -0.343 N 
HETATM   11  H   UNL     1     -43.325 -49.609  14.052  1.00  0.00     0.164 HD
ENDROOT
BRANCH  10  12
HETATM   12  C   UNL     1     -42.293 -48.787  12.427  1.00  0.00     0.130 C 
BRANCH  12  13
HETATM   13  C   UNL     1     -43.091 -47.499  12.216  1.00  0.00     0.078 C 
BRANCH  13  14
HETATM   14  C   UNL     1     -43.303 -47.172  10.772  1.00  0.00     0.031 A 
HETATM   15  C   UNL     1     -44.334 -47.531   9.930  1.00  0.00     0.045 A 
HETATM   16  C   UNL     1     -44.010 -46.959   8.690  1.00  0.00     0.109 A 
HETATM   17  N   UNL     1     -42.863 -46.283   8.731  1.00  0.00    -0.310 N 
HETATM   18  N   UNL     1     -42.439 -46.434  10.000  1.00  0.00    -0.301 N 
ATOM     19  HN  UNL     1     -42.410 -45.770   7.975  1.00  0.00     0.186 HD
HETATM   20  C   UNL     1     -41.176 -45.849  10.388  1.00  0.00     0.177 C 
ENDBRANCH  13  14
ENDBRANCH  12  13
ENDBRANCH  10  12
BRANCH   1  21
HETATM   21  C   UNL     1     -46.105 -51.431  12.493  1.00  0.00     0.035 C 
HETATM   22  C   UNL     1     -47.213 -51.886  11.554  1.00  0.00     0.008 C 
ENDBRANCH   1  21
TORSDOF 4
ENDMDL
MODEL 5
REMARK VINA RESULT:      -5.6      3.293      5.403
REMARK  4 active torsions:
REMARK  status: ('A' for Active; 'I' for Inactive)
REMARK    1  A    between atoms: C_2  and  C_3 
REMARK       I    between atoms: N_6  and  C_10 
REMARK       I    between atoms: C_10  and  N_12 
REMARK    2  A    between atoms: N_12  and  C_13 
REMARK    3  A    between atoms: C_13  and  C_14 
REMARK    4  A    between atoms: C_14  and  C_15 
ROOT
HETATM    1  C   UNL     1     -40.717 -47.864  12.125  1.00  0.00     0.073 C 
HETATM    2  C   UNL     1     -41.215 -46.527  11.554  1.00  0.00     0.047 C 
HETATM    3  C   UNL     1     -40.849 -48.954  11.020  1.00  0.00     0.165 C 
HETATM    4  N   UNL     1     -40.099 -50.161  11.384  1.00  0.00    -0.329 N 
HETATM    5  C   UNL     1     -38.690 -49.868  11.641  1.00  0.00     0.153 C 
HETATM    6  C   UNL     1     -38.585 -48.830  12.762  1.00  0.00     0.189 C 
HETATM    7  O   UNL     1     -39.327 -47.638  12.455  1.00  0.00    -0.377 OA
HETATM    8  C   UNL     1     -40.613 -51.331  11.910  1.00  0.00     0.318 C 
HETATM    9  O   UNL     1     -39.898 -52.210  12.388  1.00  0.00    -0.247 OA
HETATM   10  N   UNL     1     -41.980 -51.444  11.914  1.00  0.00    -0.343 N 
HETATM   11  H   UNL     1     -42.444 -51.029  11.121  1.00  0.00     0.164 HD
ENDROOT
BRANCH  10  12
HETATM   12  C   UNL     1     -42.565 -52.689  12.391  1.00  0.00     0.130 C 
BRANCH  12  13
HETATM   13  C   UNL     1     -43.138 -52.608  13.807  1.00  0.00     0.078 C 
BRANCH  13  14
HETATM   14  C   UNL     1     -44.621 -52.411  13.828  1.00  0.00     0.031 A 
HETATM   15  C   UNL     1     -45.353 -51.244  13.890  1.00  0.00     0.045 A 
HETATM   16  C   UNL     1     -46.696 -51.655  13.893  1.00  0.00     0.109 A 
HETATM   17  N   UNL     1     -46.817 -52.980  13.833  1.00  0.00    -0.310 N 
HETATM   18  N   UNL     1     -45.547 -53.425  13.808  1.00  0.00    -0.301 N 
ATOM     19  HN  UNL     1     -47.675 -53.531  13.812  1.00  0.00     0.186 HD
HETATM   20  C   UNL     1     -45.306 -54.849  13.784  1.00  0.00     0.177 C 
ENDBRANCH  13  14
ENDBRANCH  12  13
ENDBRANCH  10  12
BRANCH   1  21
HETATM   21  C   UNL     1     -41.549 -48.268  13.368  1.00  0.00     0.035 C 
HETATM   22  C   UNL     1     -43.057 -48.282  13.164  1.00  0.00     0.008 C 
ENDBRANCH   1  21
TORSDOF 4
ENDMDL
MODEL 6
REMARK VINA RESULT:      -5.5      3.487      5.885
REMARK  4 active torsions:
REMARK  status: ('A' for Active; 'I' for Inactive)
REMARK    1  A    between atoms: C_2  and  C_3 
REMARK       I    between atoms: N_6  and  C_10 
REMARK       I    between atoms: C_10  and  N_12 
REMARK    2  A    between atoms: N_12  and  C_13 
REMARK    3  A    between atoms: C_13  and  C_14 
REMARK    4  A    between atoms: C_14  and  C_15 
ROOT
HETATM    1  C   UNL     1     -45.823 -52.152  14.080  1.00  0.00     0.073 C 
HETATM    2  C   UNL     1     -46.891 -51.446  14.931  1.00  0.00     0.047 C 
HETATM    3  C   UNL     1     -44.434 -51.939  14.751  1.00  0.00     0.165 C 
HETATM    4  N   UNL     1     -43.433 -52.846  14.180  1.00  0.00    -0.329 N 
HETATM    5  C   UNL     1     -43.841 -54.246  14.294  1.00  0.00     0.153 C 
HETATM    6  C   UNL     1     -45.185 -54.440  13.586  1.00  0.00     0.189 C 
HETATM    7  O   UNL     1     -46.191 -53.551  14.101  1.00  0.00    -0.377 OA
HETATM    8  C   UNL     1     -42.475 -52.537  13.234  1.00  0.00     0.318 C 
HETATM    9  O   UNL     1     -41.819 -53.399  12.652  1.00  0.00    -0.247 OA
HETATM   10  N   UNL     1     -42.323 -51.205  12.940  1.00  0.00    -0.343 N 
HETATM   11  H   UNL     1     -42.446 -50.581  13.721  1.00  0.00     0.164 HD
ENDROOT
BRANCH  10  12
HETATM   12  C   UNL     1     -41.275 -50.825  12.003  1.00  0.00     0.130 C 
BRANCH  12  13
HETATM   13  C   UNL     1     -40.844 -49.361  12.108  1.00  0.00     0.078 C 
BRANCH  13  14
HETATM   14  C   UNL     1     -41.836 -48.415  11.510  1.00  0.00     0.031 A 
HETATM   15  C   UNL     1     -42.065 -48.099  10.188  1.00  0.00     0.045 A 
HETATM   16  C   UNL     1     -43.099 -47.149  10.213  1.00  0.00     0.109 A 
HETATM   17  N   UNL     1     -43.503 -46.877  11.452  1.00  0.00    -0.310 N 
HETATM   18  N   UNL     1     -42.716 -47.644  12.229  1.00  0.00    -0.301 N 
ATOM     19  HN  UNL     1     -44.239 -46.235  11.745  1.00  0.00     0.186 HD
HETATM   20  C   UNL     1     -42.862 -47.565  13.664  1.00  0.00     0.177 C 
ENDBRANCH  13  14
ENDBRANCH  12  13
ENDBRANCH  10  12
BRANCH   1  21
HETATM   21  C   UNL     1     -45.809 -51.579  12.640  1.00  0.00     0.035 C 
HETATM   22  C   UNL     1     -47.119 -51.708  11.877  1.00  0.00     0.008 C 
ENDBRANCH   1  21
TORSDOF 4
ENDMDL
MODEL 7
REMARK VINA RESULT:      -5.5      4.228      6.892
REMARK  4 active torsions:
REMARK  status: ('A' for Active; 'I' for Inactive)
REMARK    1  A    between atoms: C_2  and  C_3 
REMARK       I    between atoms: N_6  and  C_10 
REMARK       I    between atoms: C_10  and  N_12 
REMARK    2  A    between atoms: N_12  and  C_13 
REMARK    3  A    between atoms: C_13  and  C_14 
REMARK    4  A    between atoms: C_14  and  C_15 
ROOT
HETATM    1  C   UNL     1     -45.081 -51.748  14.539  1.00  0.00     0.073 C 
HETATM    2  C   UNL     1     -46.087 -51.208  15.568  1.00  0.00     0.047 C 
HETATM    3  C   UNL     1     -44.243 -52.875  15.211  1.00  0.00     0.165 C 
HETATM    4  N   UNL     1     -43.501 -53.645  14.206  1.00  0.00    -0.329 N 
HETATM    5  C   UNL     1     -44.389 -54.211  13.192  1.00  0.00     0.153 C 
HETATM    6  C   UNL     1     -45.168 -53.080  12.513  1.00  0.00     0.189 C 
HETATM    7  O   UNL     1     -45.892 -52.285  13.467  1.00  0.00    -0.377 OA
HETATM    8  C   UNL     1     -42.164 -53.518  13.883  1.00  0.00     0.318 C 
HETATM    9  O   UNL     1     -41.673 -54.045  12.886  1.00  0.00    -0.247 OA
HETATM   10  N   UNL     1     -41.412 -52.727  14.715  1.00  0.00    -0.343 N 
HETATM   11  H   UNL     1     -41.670 -52.770  15.689  1.00  0.00     0.164 HD
ENDROOT
BRANCH  10  12
HETATM   12  C   UNL     1     -39.984 -52.623  14.457  1.00  0.00     0.130 C 
BRANCH  12  13
HETATM   13  C   UNL     1     -39.452 -51.188  14.455  1.00  0.00     0.078 C 
BRANCH  13  14
HETATM   14  C   UNL     1     -38.810 -50.804  13.160  1.00  0.00     0.031 A 
HETATM   15  C   UNL     1     -37.477 -50.782  12.810  1.00  0.00     0.045 A 
HETATM   16  C   UNL     1     -37.455 -50.329  11.482  1.00  0.00     0.109 A 
HETATM   17  N   UNL     1     -38.676 -50.083  11.012  1.00  0.00    -0.310 N 
HETATM   18  N   UNL     1     -39.488 -50.363  12.049  1.00  0.00    -0.301 N 
ATOM     19  HN  UNL     1     -38.937 -49.756  10.082  1.00  0.00     0.186 HD
HETATM   20  C   UNL     1     -40.910 -50.162  11.896  1.00  0.00     0.177 C 
ENDBRANCH  13  14
ENDBRANCH  12  13
ENDBRANCH  10  12
BRANCH   1  21
HETATM   21  C   UNL     1     -44.146 -50.616  14.045  1.00  0.00     0.035 C 
HETATM   22  C   UNL     1     -43.453 -49.822  15.143  1.00  0.00     0.008 C 
ENDBRANCH   1  21
TORSDOF 4
ENDMDL
MODEL 8
REMARK VINA RESULT:      -5.3      3.113      6.268
REMARK  4 active torsions:
REMARK  status: ('A' for Active; 'I' for Inactive)
REMARK    1  A    between atoms: C_2  and  C_3 
REMARK       I    between atoms: N_6  and  C_10 
REMARK       I    between atoms: C_10  and  N_12 
REMARK    2  A    between atoms: N_12  and  C_13 
REMARK    3  A    between atoms: C_13  and  C_14 
REMARK    4  A    between atoms: C_14  and  C_15 
ROOT
HETATM    1  C   UNL     1     -41.623 -47.958  12.256  1.00  0.00     0.073 C 
HETATM    2  C   UNL     1     -42.647 -46.962  11.687  1.00  0.00     0.047 C 
HETATM    3  C   UNL     1     -41.127 -48.873  11.097  1.00  0.00     0.165 C 
HETATM    4  N   UNL     1     -39.926 -49.616  11.496  1.00  0.00    -0.329 N 
HETATM    5  C   UNL     1     -38.854 -48.723  11.931  1.00  0.00     0.153 C 
HETATM    6  C   UNL     1     -39.351 -47.867  13.101  1.00  0.00     0.189 C 
HETATM    7  O   UNL     1     -40.542 -47.139  12.758  1.00  0.00    -0.377 OA
HETATM    8  C   UNL     1     -39.864 -50.934  11.906  1.00  0.00     0.318 C 
HETATM    9  O   UNL     1     -38.860 -51.416  12.428  1.00  0.00    -0.247 OA
HETATM   10  N   UNL     1     -41.008 -51.674  11.743  1.00  0.00    -0.343 N 
HETATM   11  H   UNL     1     -41.543 -51.452  10.918  1.00  0.00     0.164 HD
ENDROOT
BRANCH  10  12
HETATM   12  C   UNL     1     -40.967 -53.086  12.093  1.00  0.00     0.130 C 
BRANCH  12  13
HETATM   13  C   UNL     1     -41.470 -53.395  13.504  1.00  0.00     0.078 C 
BRANCH  13  14
HETATM   14  C   UNL     1     -42.878 -53.900  13.526  1.00  0.00     0.031 A 
HETATM   15  C   UNL     1     -43.926 -53.624  12.673  1.00  0.00     0.045 A 
HETATM   16  C   UNL     1     -45.010 -54.361  13.176  1.00  0.00     0.109 A 
HETATM   17  N   UNL     1     -44.685 -55.057  14.263  1.00  0.00    -0.310 N 
HETATM   18  N   UNL     1     -43.389 -54.756  14.471  1.00  0.00    -0.301 N 
ATOM     19  HN  UNL     1     -45.280 -55.677  14.813  1.00  0.00     0.186 HD
HETATM   20  C   UNL     1     -42.716 -55.320  15.617  1.00  0.00     0.177 C 
ENDBRANCH  13  14
ENDBRANCH  12  13
ENDBRANCH  10  12
BRANCH   1  21
HETATM   21  C   UNL     1     -42.264 -48.820  13.372  1.00  0.00     0.035 C 
HETATM   22  C   UNL     1     -43.496 -49.610  12.955  1.00  0.00     0.008 C 
ENDBRANCH   1  21
TORSDOF 4
ENDMDL
MODEL 9
REMARK VINA RESULT:      -5.2      3.760      5.718
REMARK  4 active torsions:
REMARK  status: ('A' for Active; 'I' for Inactive)
REMARK    1  A    between atoms: C_2  and  C_3 
REMARK       I    between atoms: N_6  and  C_10 
REMARK       I    between atoms: C_10  and  N_12 
REMARK    2  A    between atoms: N_12  and  C_13 
REMARK    3  A    between atoms: C_13  and  C_14 
REMARK    4  A    between atoms: C_14  and  C_15 
ROOT
HETATM    1  C   UNL     1     -41.220 -47.092  11.365  1.00  0.00     0.073 C 
HETATM    2  C   UNL     1     -41.472 -45.915  10.409  1.00  0.00     0.047 C 
HETATM    3  C   UNL     1     -41.892 -48.365  10.770  1.00  0.00     0.165 C 
HETATM    4  N   UNL     1     -41.419 -49.574  11.453  1.00  0.00    -0.329 N 
HETATM    5  C   UNL     1     -39.963 -49.696  11.397  1.00  0.00     0.153 C 
HETATM    6  C   UNL     1     -39.327 -48.455  12.030  1.00  0.00     0.189 C 
HETATM    7  O   UNL     1     -39.782 -47.244  11.403  1.00  0.00    -0.377 OA
HETATM    8  C   UNL     1     -42.080 -50.284  12.437  1.00  0.00     0.318 C 
HETATM    9  O   UNL     1     -41.527 -51.153  13.108  1.00  0.00    -0.247 OA
HETATM   10  N   UNL     1     -43.388 -49.934  12.661  1.00  0.00    -0.343 N 
HETATM   11  H   UNL     1     -43.902 -49.660  11.838  1.00  0.00     0.164 HD
ENDROOT
BRANCH  10  12
HETATM   12  C   UNL     1     -44.147 -50.702  13.637  1.00  0.00     0.130 C 
BRANCH  12  13
HETATM   13  C   UNL     1     -45.385 -51.392  13.063  1.00  0.00     0.078 C 
BRANCH  13  14
HETATM   14  C   UNL     1     -45.542 -52.802  13.536  1.00  0.00     0.031 A 
HETATM   15  C   UNL     1     -44.983 -53.963  13.044  1.00  0.00     0.045 A 
HETATM   16  C   UNL     1     -45.485 -54.986  13.864  1.00  0.00     0.109 A 
HETATM   17  N   UNL     1     -46.300 -54.521  14.808  1.00  0.00    -0.310 N 
HETATM   18  N   UNL     1     -46.335 -53.193  14.587  1.00  0.00    -0.301 N 
ATOM     19  HN  UNL     1     -46.787 -55.048  15.533  1.00  0.00     0.186 HD
HETATM   20  C   UNL     1     -47.175 -52.368  15.423  1.00  0.00     0.177 C 
ENDBRANCH  13  14
ENDBRANCH  12  13
ENDBRANCH  10  12
BRANCH   1  21
HETATM   21  C   UNL     1     -41.808 -46.791  12.766  1.00  0.00     0.035 C 
HETATM   22  C   UNL     1     -41.282 -45.528  13.433  1.00  0.00     0.008 C 
ENDBRANCH   1  21
TORSDOF 4
ENDMDL
