MODEL 1
REMARK VINA RESULT:      -6.5      0.000      0.000
REMARK  2 active torsions:
REMARK  status: ('A' for Active; 'I' for Inactive)
REMARK    1  A    between atoms: C_6  and  N_7 
REMARK       I    between atoms: N_7  and  C_8 
REMARK       I    between atoms: C_8  and  N_10 
REMARK    2  A    between atoms: N_10  and  C_11 
ROOT
HETATM    1  N   UNL     1     -42.885 -52.925  12.689  1.00  0.00    -0.295 N 
HETATM    2  C   UNL     1     -41.797 -52.252  12.218  1.00  0.00     0.322 C 
HETATM    3  O   UNL     1     -40.756 -52.865  11.996  1.00  0.00    -0.247 OA
HETATM    4  N   UNL     1     -41.953 -50.915  11.975  1.00  0.00    -0.338 N 
HETATM    5  H   UNL     1     -42.740 -53.921  12.751  1.00  0.00     0.172 HD
HETATM    6  H   UNL     1     -42.781 -50.513  12.413  1.00  0.00     0.164 HD
ENDROOT
BRANCH   1   7
HETATM    7  C   UNL     1     -44.124 -52.404  13.063  1.00  0.00     0.109 A 
HETATM    8  C   UNL     1     -44.305 -51.998  14.377  1.00  0.00     0.049 A 
HETATM    9  C   UNL     1     -45.561 -51.530  14.758  1.00  0.00     0.006 A 
HETATM   10  C   UNL     1     -46.580 -51.456  13.814  1.00  0.00     0.025 A 
HETATM   11  C   UNL     1     -46.308 -51.838  12.510  1.00  0.00     0.007 A 
HETATM   12  C   UNL     1     -47.343 -51.784  11.432  1.00  0.00     0.068 C 
HETATM   13  N   UNL     1     -45.104 -52.324  12.138  1.00  0.00    -0.346 N 
ATOM     14  HN  UNL     1     -44.939 -52.624  11.177  1.00  0.00     0.167 HD
ENDBRANCH   1   7
BRANCH   4  15
HETATM   15  C   UNL     1     -40.837 -50.056  11.614  1.00  0.00     0.091 C 
HETATM   16  C   UNL     1     -39.948 -49.728  12.814  1.00  0.00     0.051 C 
HETATM   17  C   UNL     1     -40.333 -48.446  13.524  1.00  0.00     0.171 C 
HETATM   18  O   UNL     1     -40.418 -47.369  12.601  1.00  0.00    -0.381 OA
HETATM   19  C   UNL     1     -41.451 -47.515  11.620  1.00  0.00     0.055 C 
HETATM   20  C   UNL     1     -42.830 -47.377  12.275  1.00  0.00     0.045 C 
HETATM   21  C   UNL     1     -41.274 -46.328  10.656  1.00  0.00     0.045 C 
HETATM   22  C   UNL     1     -41.288 -48.821  10.820  1.00  0.00     0.062 C 
ENDBRANCH   4  15
TORSDOF 2
ENDMDL
MODEL 2
REMARK VINA RESULT:      -6.3      2.784      5.903
REMARK  2 active torsions:
REMARK  status: ('A' for Active; 'I' for Inactive)
REMARK    1  A    between atoms: C_6  and  N_7 
REMARK       I    between atoms: N_7  and  C_8 
REMARK       I    between atoms: C_8  and  N_10 
REMARK    2  A    between atoms: N_10  and  C_11 
ROOT
HETATM    1  N   UNL     1     -42.974 -47.552  12.210  1.00  0.00    -0.295 N 
HETATM    2  C   UNL     1     -43.002 -48.547  13.142  1.00  0.00     0.322 C 
HETATM    3  O   UNL     1     -42.515 -48.349  14.252  1.00  0.00    -0.247 OA
HETATM    4  N   UNL     1     -43.624 -49.711  12.786  1.00  0.00    -0.338 N 
HETATM    5  H   UNL     1     -42.595 -46.687  12.563  1.00  0.00     0.172 HD
HETATM    6  H   UNL     1     -43.771 -49.807  11.782  1.00  0.00     0.164 HD
ENDROOT
BRANCH   1   7
HETATM    7  C   UNL     1     -43.408 -47.601  10.885  1.00  0.00     0.109 A 
HETATM    8  C   UNL     1     -42.485 -47.898   9.893  1.00  0.00     0.049 A 
HETATM    9  C   UNL     1     -42.911 -47.892   8.567  1.00  0.00     0.006 A 
HETATM   10  C   UNL     1     -44.245 -47.620   8.278  1.00  0.00     0.025 A 
HETATM   11  C   UNL     1     -45.117 -47.376   9.327  1.00  0.00     0.007 A 
HETATM   12  C   UNL     1     -46.567 -47.081   9.107  1.00  0.00     0.068 C 
HETATM   13  N   UNL     1     -44.706 -47.348  10.614  1.00  0.00    -0.346 N 
ATOM     14  HN  UNL     1     -45.364 -47.139  11.365  1.00  0.00     0.167 HD
ENDBRANCH   1   7
BRANCH   4  15
HETATM   15  C   UNL     1     -43.594 -50.896  13.628  1.00  0.00     0.091 C 
HETATM   16  C   UNL     1     -42.981 -52.100  12.912  1.00  0.00     0.051 C 
HETATM   17  C   UNL     1     -44.000 -52.974  12.210  1.00  0.00     0.171 C 
HETATM   18  O   UNL     1     -45.039 -53.347  13.104  1.00  0.00    -0.381 OA
HETATM   19  C   UNL     1     -45.830 -52.251  13.577  1.00  0.00     0.055 C 
HETATM   20  C   UNL     1     -46.686 -51.683  12.440  1.00  0.00     0.045 C 
HETATM   21  C   UNL     1     -46.786 -52.854  14.622  1.00  0.00     0.045 C 
HETATM   22  C   UNL     1     -44.959 -51.187  14.271  1.00  0.00     0.062 C 
ENDBRANCH   4  15
TORSDOF 2
ENDMDL
MODEL 3
REMARK VINA RESULT:      -6.2      1.642      2.003
REMARK  2 active torsions:
REMARK  status: ('A' for Active; 'I' for Inactive)
REMARK    1  A    between atoms: C_6  and  N_7 
REMARK       I    between atoms: N_7  and  C_8 
REMARK       I    between atoms: C_8  and  N_10 
REMARK    2  A    between atoms: N_10  and  C_11 
ROOT
HETATM    1  N   UNL     1     -42.521 -51.633  13.019  1.00  0.00    -0.295 N 
HETATM    2  C   UNL     1     -41.771 -50.730  12.327  1.00  0.00     0.322 C 
HETATM    3  O   UNL     1     -40.578 -50.954  12.137  1.00  0.00    -0.247 OA
HETATM    4  N   UNL     1     -42.420 -49.631  11.838  1.00  0.00    -0.338 N 
HETATM    5  H   UNL     1     -42.012 -52.469  13.265  1.00  0.00     0.172 HD
HETATM    6  H   UNL     1     -43.334 -49.473  12.261  1.00  0.00     0.164 HD
ENDROOT
BRANCH   1   7
HETATM    7  C   UNL     1     -43.862 -51.532  13.394  1.00  0.00     0.109 A 
HETATM    8  C   UNL     1     -44.162 -51.248  14.717  1.00  0.00     0.049 A 
HETATM    9  C   UNL     1     -45.501 -51.202  15.097  1.00  0.00     0.006 A 
HETATM   10  C   UNL     1     -46.492 -51.412  14.142  1.00  0.00     0.025 A 
HETATM   11  C   UNL     1     -46.112 -51.647  12.831  1.00  0.00     0.007 A 
HETATM   12  C   UNL     1     -47.111 -51.877  11.741  1.00  0.00     0.068 C 
HETATM   13  N   UNL     1     -44.816 -51.726  12.459  1.00  0.00    -0.346 N 
ATOM     14  HN  UNL     1     -44.564 -51.927  11.491  1.00  0.00     0.167 HD
ENDBRANCH   1   7
BRANCH   4  15
HETATM   15  C   UNL     1     -41.712 -48.525  11.213  1.00  0.00     0.091 C 
HETATM   16  C   UNL     1     -41.584 -47.320  12.145  1.00  0.00     0.051 C 
HETATM   17  C   UNL     1     -42.706 -46.312  11.994  1.00  0.00     0.171 C 
HETATM   18  O   UNL     1     -42.857 -45.932  10.633  1.00  0.00    -0.381 OA
HETATM   19  C   UNL     1     -43.264 -46.997   9.766  1.00  0.00     0.055 C 
HETATM   20  C   UNL     1     -44.713 -47.400  10.064  1.00  0.00     0.045 C 
HETATM   21  C   UNL     1     -43.228 -46.407   8.345  1.00  0.00     0.045 C 
HETATM   22  C   UNL     1     -42.281 -48.180   9.828  1.00  0.00     0.062 C 
ENDBRANCH   4  15
TORSDOF 2
ENDMDL
MODEL 4
REMARK VINA RESULT:      -5.9      0.725      1.621
REMARK  2 active torsions:
REMARK  status: ('A' for Active; 'I' for Inactive)
REMARK    1  A    between atoms: C_6  and  N_7 
REMARK       I    between atoms: N_7  and  C_8 
REMARK       I    between atoms: C_8  and  N_10 
REMARK    2  A    between atoms: N_10  and  C_11 
ROOT
HETATM    1  N   UNL     1     -42.901 -52.999  12.554  1.00  0.00    -0.295 N 
HETATM    2  C   UNL     1     -41.832 -52.294  12.088  1.00  0.00     0.322 C 
HETATM    3  O   UNL     1     -40.814 -52.893  11.749  1.00  0.00    -0.247 OA
HETATM    4  N   UNL     1     -41.980 -50.939  11.984  1.00  0.00    -0.338 N 
HETATM    5  H   UNL     1     -42.768 -53.998  12.511  1.00  0.00     0.172 HD
HETATM    6  H   UNL     1     -42.776 -50.573  12.506  1.00  0.00     0.164 HD
ENDROOT
BRANCH   1   7
HETATM    7  C   UNL     1     -44.110 -52.505  13.047  1.00  0.00     0.109 A 
HETATM    8  C   UNL     1     -45.248 -52.631  12.264  1.00  0.00     0.049 A 
HETATM    9  C   UNL     1     -46.440 -52.088  12.737  1.00  0.00     0.006 A 
HETATM   10  C   UNL     1     -46.463 -51.466  13.982  1.00  0.00     0.025 A 
HETATM   11  C   UNL     1     -45.294 -51.419  14.724  1.00  0.00     0.007 A 
HETATM   12  C   UNL     1     -45.231 -50.775  16.073  1.00  0.00     0.068 C 
HETATM   13  N   UNL     1     -44.126 -51.914  14.260  1.00  0.00    -0.346 N 
ATOM     14  HN  UNL     1     -43.273 -51.842  14.816  1.00  0.00     0.167 HD
ENDBRANCH   1   7
BRANCH   4  15
HETATM   15  C   UNL     1     -40.874 -50.060  11.644  1.00  0.00     0.091 C 
HETATM   16  C   UNL     1     -40.021 -49.704  12.863  1.00  0.00     0.051 C 
HETATM   17  C   UNL     1     -40.450 -48.426  13.553  1.00  0.00     0.171 C 
HETATM   18  O   UNL     1     -40.534 -47.358  12.621  1.00  0.00    -0.381 OA
HETATM   19  C   UNL     1     -41.540 -47.531  11.616  1.00  0.00     0.055 C 
HETATM   20  C   UNL     1     -42.937 -47.417  12.237  1.00  0.00     0.045 C 
HETATM   21  C   UNL     1     -41.363 -46.348  10.648  1.00  0.00     0.045 C 
HETATM   22  C   UNL     1     -41.331 -48.839  10.830  1.00  0.00     0.062 C 
ENDBRANCH   4  15
TORSDOF 2
ENDMDL
MODEL 5
REMARK VINA RESULT:      -5.8      3.899      5.573
REMARK  2 active torsions:
REMARK  status: ('A' for Active; 'I' for Inactive)
REMARK    1  A    between atoms: C_6  and  N_7 
REMARK       I    between atoms: N_7  and  C_8 
REMARK       I    between atoms: C_8  and  N_10 
REMARK    2  A    between atoms: N_10  and  C_11 
ROOT
HETATM    1  N   UNL     1     -41.742 -49.244  10.663  1.00  0.00    -0.295 N 
HETATM    2  C   UNL     1     -41.993 -47.961  10.276  1.00  0.00     0.322 C 
HETATM    3  O   UNL     1     -42.906 -47.735   9.487  1.00  0.00    -0.247 OA
HETATM    4  N   UNL     1     -41.223 -46.982  10.841  1.00  0.00    -0.338 N 
HETATM    5  H   UNL     1     -42.406 -49.908  10.293  1.00  0.00     0.172 HD
HETATM    6  H   UNL     1     -40.377 -47.334  11.289  1.00  0.00     0.164 HD
ENDROOT
BRANCH   1   7
HETATM    7  C   UNL     1     -40.718 -49.710  11.489  1.00  0.00     0.109 A 
HETATM    8  C   UNL     1     -41.021 -50.038  12.802  1.00  0.00     0.049 A 
HETATM    9  C   UNL     1     -39.986 -50.450  13.638  1.00  0.00     0.006 A 
HETATM   10  C   UNL     1     -38.694 -50.549  13.130  1.00  0.00     0.025 A 
HETATM   11  C   UNL     1     -38.479 -50.246  11.795  1.00  0.00     0.007 A 
HETATM   12  C   UNL     1     -37.124 -50.331  11.166  1.00  0.00     0.068 C 
HETATM   13  N   UNL     1     -39.470 -49.814  10.985  1.00  0.00    -0.346 N 
ATOM     14  HN  UNL     1     -39.279 -49.572  10.013  1.00  0.00     0.167 HD
ENDBRANCH   1   7
BRANCH   4  15
HETATM   15  C   UNL     1     -41.288 -45.596  10.407  1.00  0.00     0.091 C 
HETATM   16  C   UNL     1     -39.915 -44.923  10.413  1.00  0.00     0.051 C 
HETATM   17  C   UNL     1     -39.596 -44.204  11.707  1.00  0.00     0.171 C 
HETATM   18  O   UNL     1     -40.642 -43.306  12.051  1.00  0.00    -0.381 OA
HETATM   19  C   UNL     1     -41.892 -43.941  12.338  1.00  0.00     0.055 C 
HETATM   20  C   UNL     1     -41.804 -44.719  13.656  1.00  0.00     0.045 C 
HETATM   21  C   UNL     1     -42.899 -42.794  12.543  1.00  0.00     0.045 C 
HETATM   22  C   UNL     1     -42.370 -44.803  11.155  1.00  0.00     0.062 C 
ENDBRANCH   4  15
TORSDOF 2
ENDMDL
MODEL 6
REMARK VINA RESULT:      -5.8      1.911      5.580
REMARK  2 active torsions:
REMARK  status: ('A' for Active; 'I' for Inactive)
REMARK    1  A    between atoms: C_6  and  N_7 
REMARK       I    between atoms: N_7  and  C_8 
REMARK       I    between atoms: C_8  and  N_10 
REMARK    2  A    between atoms: N_10  and  C_11 
ROOT
HETATM    1  N   UNL     1     -40.724 -50.731  11.497  1.00  0.00    -0.295 N 
HETATM    2  C   UNL     1     -41.201 -51.902  12.006  1.00  0.00     0.322 C 
HETATM    3  O   UNL     1     -40.580 -52.943  11.809  1.00  0.00    -0.247 OA
HETATM    4  N   UNL     1     -42.340 -51.832  12.759  1.00  0.00    -0.338 N 
HETATM    5  H   UNL     1     -39.830 -50.830  11.041  1.00  0.00     0.172 HD
HETATM    6  H   UNL     1     -42.854 -50.959  12.644  1.00  0.00     0.164 HD
ENDROOT
BRANCH   1   7
HETATM    7  C   UNL     1     -41.311 -49.466  11.553  1.00  0.00     0.109 A 
HETATM    8  C   UNL     1     -41.212 -48.738  12.730  1.00  0.00     0.049 A 
HETATM    9  C   UNL     1     -41.846 -47.500  12.798  1.00  0.00     0.006 A 
HETATM   10  C   UNL     1     -42.529 -47.018  11.685  1.00  0.00     0.025 A 
HETATM   11  C   UNL     1     -42.545 -47.784  10.531  1.00  0.00     0.007 A 
HETATM   12  C   UNL     1     -43.250 -47.339   9.288  1.00  0.00     0.068 C 
HETATM   13  N   UNL     1     -41.961 -49.001  10.465  1.00  0.00    -0.346 N 
ATOM     14  HN  UNL     1     -42.011 -49.556   9.611  1.00  0.00     0.167 HD
ENDBRANCH   1   7
BRANCH   4  15
HETATM   15  C   UNL     1     -43.032 -53.020  13.233  1.00  0.00     0.091 C 
HETATM   16  C   UNL     1     -44.203 -53.408  12.330  1.00  0.00     0.051 C 
HETATM   17  C   UNL     1     -45.527 -52.813  12.762  1.00  0.00     0.171 C 
HETATM   18  O   UNL     1     -45.781 -53.098  14.130  1.00  0.00    -0.381 OA
HETATM   19  C   UNL     1     -44.850 -52.500  15.039  1.00  0.00     0.055 C 
HETATM   20  C   UNL     1     -45.042 -50.979  15.072  1.00  0.00     0.045 C 
HETATM   21  C   UNL     1     -45.221 -53.046  16.429  1.00  0.00     0.045 C 
HETATM   22  C   UNL     1     -43.403 -52.921  14.720  1.00  0.00     0.062 C 
ENDBRANCH   4  15
TORSDOF 2
ENDMDL
MODEL 7
REMARK VINA RESULT:      -5.7      3.287      4.766
REMARK  2 active torsions:
REMARK  status: ('A' for Active; 'I' for Inactive)
REMARK    1  A    between atoms: C_6  and  N_7 
REMARK       I    between atoms: N_7  and  C_8 
REMARK       I    between atoms: C_8  and  N_10 
REMARK    2  A    between atoms: N_10  and  C_11 
ROOT
HETATM    1  N   UNL     1     -43.215 -52.692  12.039  1.00  0.00    -0.295 N 
HETATM    2  C   UNL     1     -41.879 -52.607  12.300  1.00  0.00     0.322 C 
HETATM    3  O   UNL     1     -41.107 -52.289  11.400  1.00  0.00    -0.247 OA
HETATM    4  N   UNL     1     -41.483 -52.842  13.587  1.00  0.00    -0.338 N 
HETATM    5  H   UNL     1     -43.456 -52.409  11.102  1.00  0.00     0.172 HD
HETATM    6  H   UNL     1     -42.190 -53.308  14.155  1.00  0.00     0.164 HD
ENDROOT
BRANCH   1   7
HETATM    7  C   UNL     1     -44.236 -53.098  12.900  1.00  0.00     0.109 A 
HETATM    8  C   UNL     1     -44.438 -54.456  13.096  1.00  0.00     0.049 A 
HETATM    9  C   UNL     1     -45.493 -54.858  13.912  1.00  0.00     0.006 A 
HETATM   10  C   UNL     1     -46.289 -53.894  14.526  1.00  0.00     0.025 A 
HETATM   11  C   UNL     1     -45.995 -52.557  14.316  1.00  0.00     0.007 A 
HETATM   12  C   UNL     1     -46.795 -51.458  14.941  1.00  0.00     0.068 C 
HETATM   13  N   UNL     1     -44.995 -52.158  13.500  1.00  0.00    -0.346 N 
ATOM     14  HN  UNL     1     -44.817 -51.166  13.342  1.00  0.00     0.167 HD
ENDBRANCH   1   7
BRANCH   4  15
HETATM   15  C   UNL     1     -40.082 -52.928  13.965  1.00  0.00     0.091 C 
HETATM   16  C   UNL     1     -39.596 -54.375  14.063  1.00  0.00     0.051 C 
HETATM   17  C   UNL     1     -39.712 -54.962  15.454  1.00  0.00     0.171 C 
HETATM   18  O   UNL     1     -39.087 -54.115  16.408  1.00  0.00    -0.381 OA
HETATM   19  C   UNL     1     -39.706 -52.832  16.551  1.00  0.00     0.055 C 
HETATM   20  C   UNL     1     -41.077 -52.974  17.220  1.00  0.00     0.045 C 
HETATM   21  C   UNL     1     -38.799 -52.042  17.511  1.00  0.00     0.045 C 
HETATM   22  C   UNL     1     -39.762 -52.082  15.207  1.00  0.00     0.062 C 
ENDBRANCH   4  15
TORSDOF 2
ENDMDL
MODEL 8
REMARK VINA RESULT:      -5.5      4.157      5.658
REMARK  2 active torsions:
REMARK  status: ('A' for Active; 'I' for Inactive)
REMARK    1  A    between atoms: C_6  and  N_7 
REMARK       I    between atoms: N_7  and  C_8 
REMARK       I    between atoms: C_8  and  N_10 
REMARK    2  A    between atoms: N_10  and  C_11 
ROOT
HETATM    1  N   UNL     1     -40.796 -49.622  10.658  1.00  0.00    -0.295 N 
HETATM    2  C   UNL     1     -41.403 -48.402  10.660  1.00  0.00     0.322 C 
HETATM    3  O   UNL     1     -42.254 -48.150   9.811  1.00  0.00    -0.247 OA
HETATM    4  N   UNL     1     -41.050 -47.535  11.657  1.00  0.00    -0.338 N 
HETATM    5  H   UNL     1     -41.170 -50.252   9.965  1.00  0.00     0.172 HD
HETATM    6  H   UNL     1     -40.188 -47.792  12.136  1.00  0.00     0.164 HD
ENDROOT
BRANCH   1   7
HETATM    7  C   UNL     1     -39.768 -50.074  11.487  1.00  0.00     0.109 A 
HETATM    8  C   UNL     1     -38.484 -49.591  11.277  1.00  0.00     0.049 A 
HETATM    9  C   UNL     1     -37.453 -50.086  12.072  1.00  0.00     0.006 A 
HETATM   10  C   UNL     1     -37.739 -51.019  13.064  1.00  0.00     0.025 A 
HETATM   11  C   UNL     1     -39.054 -51.419  13.241  1.00  0.00     0.007 A 
HETATM   12  C   UNL     1     -39.451 -52.412  14.287  1.00  0.00     0.068 C 
HETATM   13  N   UNL     1     -40.056 -50.969  12.455  1.00  0.00    -0.346 N 
ATOM     14  HN  UNL     1     -41.011 -51.301  12.590  1.00  0.00     0.167 HD
ENDBRANCH   1   7
BRANCH   4  15
HETATM   15  C   UNL     1     -41.511 -46.157  11.687  1.00  0.00     0.091 C 
HETATM   16  C   UNL     1     -40.891 -45.315  10.571  1.00  0.00     0.051 C 
HETATM   17  C   UNL     1     -39.621 -44.599  10.984  1.00  0.00     0.171 C 
HETATM   18  O   UNL     1     -39.832 -43.852  12.173  1.00  0.00    -0.381 OA
HETATM   19  C   UNL     1     -40.138 -44.649  13.323  1.00  0.00     0.055 C 
HETATM   20  C   UNL     1     -38.904 -45.448  13.759  1.00  0.00     0.045 C 
HETATM   21  C   UNL     1     -40.462 -43.646  14.445  1.00  0.00     0.045 C 
HETATM   22  C   UNL     1     -41.377 -45.530  13.083  1.00  0.00     0.062 C 
ENDBRANCH   4  15
TORSDOF 2
ENDMDL
MODEL 9
REMARK VINA RESULT:      -5.3      2.757      4.614
REMARK  2 active torsions:
REMARK  status: ('A' for Active; 'I' for Inactive)
REMARK    1  A    between atoms: C_6  and  N_7 
REMARK       I    between atoms: N_7  and  C_8 
REMARK       I    between atoms: C_8  and  N_10 
REMARK    2  A    between atoms: N_10  and  C_11 
ROOT
HETATM    1  N   UNL     1     -44.369 -50.764  12.901  1.00  0.00    -0.295 N 
HETATM    2  C   UNL     1     -43.007 -50.711  12.917  1.00  0.00     0.322 C 
HETATM    3  O   UNL     1     -42.428 -49.875  12.228  1.00  0.00    -0.247 OA
HETATM    4  N   UNL     1     -42.362 -51.580  13.752  1.00  0.00    -0.338 N 
HETATM    5  H   UNL     1     -44.790 -50.034  12.347  1.00  0.00     0.172 HD
HETATM    6  H   UNL     1     -42.950 -52.348  14.077  1.00  0.00     0.164 HD
ENDROOT
BRANCH   1   7
HETATM    7  C   UNL     1     -45.203 -51.674  13.553  1.00  0.00     0.109 A 
HETATM    8  C   UNL     1     -46.204 -51.185  14.379  1.00  0.00     0.049 A 
HETATM    9  C   UNL     1     -46.997 -52.098  15.070  1.00  0.00     0.006 A 
HETATM   10  C   UNL     1     -46.786 -53.462  14.892  1.00  0.00     0.025 A 
HETATM   11  C   UNL     1     -45.795 -53.872  14.015  1.00  0.00     0.007 A 
HETATM   12  C   UNL     1     -45.505 -55.318  13.760  1.00  0.00     0.068 C 
HETATM   13  N   UNL     1     -44.998 -52.996  13.365  1.00  0.00    -0.346 N 
ATOM     14  HN  UNL     1     -44.258 -53.325  12.746  1.00  0.00     0.167 HD
ENDBRANCH   1   7
BRANCH   4  15
HETATM   15  C   UNL     1     -40.916 -51.727  13.754  1.00  0.00     0.091 C 
HETATM   16  C   UNL     1     -40.441 -52.800  12.774  1.00  0.00     0.051 C 
HETATM   17  C   UNL     1     -40.295 -54.173  13.399  1.00  0.00     0.171 C 
HETATM   18  O   UNL     1     -39.486 -54.107  14.565  1.00  0.00    -0.381 OA
HETATM   19  C   UNL     1     -40.047 -53.329  15.628  1.00  0.00     0.055 C 
HETATM   20  C   UNL     1     -41.266 -54.044  16.224  1.00  0.00     0.045 C 
HETATM   21  C   UNL     1     -38.961 -53.276  16.718  1.00  0.00     0.045 C 
HETATM   22  C   UNL     1     -40.351 -51.890  15.173  1.00  0.00     0.062 C 
ENDBRANCH   4  15
TORSDOF 2
ENDMDL
