MODEL 1
REMARK VINA RESULT:      -6.4      0.000      0.000
REMARK  5 active torsions:
REMARK  status: ('A' for Active; 'I' for Inactive)
REMARK    1  A    between atoms: C_2  and  C_5 
REMARK    2  A    between atoms: C_5  and  N_6 
REMARK    3  A    between atoms: C_9  and  C_10 
REMARK    4  A    between atoms: C_10  and  N_11 
REMARK       I    between atoms: N_11  and  C_12 
REMARK       I    between atoms: C_12  and  N_14 
REMARK    5  A    between atoms: N_14  and  C_15 
ROOT
HETATM    1  N   UNL     1     -41.549 -53.363  12.508  1.00  0.00    -0.342 N 
HETATM    2  C   UNL     1     -41.097 -52.075  12.662  1.00  0.00     0.320 C 
HETATM    3  O   UNL     1     -40.944 -51.562  13.764  1.00  0.00    -0.247 OA
HETATM    4  N   UNL     1     -40.897 -51.451  11.452  1.00  0.00    -0.306 N 
HETATM    5  H   UNL     1     -41.419 -53.841  11.622  1.00  0.00     0.164 HD
HETATM    6  H   UNL     1     -41.286 -51.882  10.628  1.00  0.00     0.171 HD
ENDROOT
BRANCH   1   7
HETATM    7  C   UNL     1     -41.986 -54.152  13.640  1.00  0.00     0.130 C 
BRANCH   7   8
HETATM    8  C   UNL     1     -43.506 -54.345  13.727  1.00  0.00     0.033 C 
HETATM    9  C   UNL     1     -44.233 -53.767  12.511  1.00  0.00     0.038 C 
HETATM   10  C   UNL     1     -44.779 -52.414  12.964  1.00  0.00     0.273 C 
HETATM   11  N   UNL     1     -44.329 -52.248  14.356  1.00  0.00     0.097 N 
HETATM   12  C   UNL     1     -44.155 -53.605  14.891  1.00  0.00     0.279 C 
BRANCH  11  13
HETATM   13  C   UNL     1     -45.274 -51.447  15.171  1.00  0.00     0.389 C 
BRANCH  13  14
HETATM   14  C   UNL     1     -46.790 -51.617  14.910  1.00  0.00     0.413 C 
HETATM   15  F   UNL     1     -47.168 -52.912  14.826  1.00  0.00    -0.169 F 
HETATM   16  F   UNL     1     -47.147 -51.020  13.747  1.00  0.00    -0.169 F 
HETATM   17  F   UNL     1     -47.514 -51.044  15.900  1.00  0.00    -0.169 F 
ENDBRANCH  13  14
ENDBRANCH  11  13
ENDBRANCH   7   8
ENDBRANCH   1   7
BRANCH   4  18
HETATM   18  C   UNL     1     -40.456 -50.145  11.346  1.00  0.00     0.070 A 
HETATM   19  C   UNL     1     -41.149 -48.959  11.013  1.00  0.00     0.138 A 
HETATM   20  N   UNL     1     -40.346 -47.890  10.991  1.00  0.00    -0.310 N 
HETATM   21  N   UNL     1     -39.141 -48.398  11.293  1.00  0.00    -0.310 N 
ATOM     22  HN  UNL     1     -40.591 -46.920  10.792  1.00  0.00     0.186 HD
HETATM   23  C   UNL     1     -39.160 -49.741  11.555  1.00  0.00     0.138 A 
HETATM   24  H   UNL     1     -38.347 -47.768  11.294  1.00  0.00     0.186 HD
ENDBRANCH   4  18
TORSDOF 5
ENDMDL
MODEL 2
REMARK VINA RESULT:      -6.3      5.391      6.877
REMARK  5 active torsions:
REMARK  status: ('A' for Active; 'I' for Inactive)
REMARK    1  A    between atoms: C_2  and  C_5 
REMARK    2  A    between atoms: C_5  and  N_6 
REMARK    3  A    between atoms: C_9  and  C_10 
REMARK    4  A    between atoms: C_10  and  N_11 
REMARK       I    between atoms: N_11  and  C_12 
REMARK       I    between atoms: C_12  and  N_14 
REMARK    5  A    between atoms: N_14  and  C_15 
ROOT
HETATM    1  N   UNL     1     -40.898 -49.262  10.331  1.00  0.00    -0.342 N 
HETATM    2  C   UNL     1     -41.929 -48.369  10.490  1.00  0.00     0.320 C 
HETATM    3  O   UNL     1     -42.263 -47.943  11.589  1.00  0.00    -0.247 OA
HETATM    4  N   UNL     1     -42.544 -48.074   9.295  1.00  0.00    -0.306 N 
HETATM    5  H   UNL     1     -40.481 -49.394   9.416  1.00  0.00     0.164 HD
HETATM    6  H   UNL     1     -42.346 -48.665   8.503  1.00  0.00     0.171 HD
ENDROOT
BRANCH   1   7
HETATM    7  C   UNL     1     -40.219 -49.845  11.469  1.00  0.00     0.130 C 
BRANCH   7   8
HETATM    8  C   UNL     1     -38.860 -49.208  11.790  1.00  0.00     0.033 C 
HETATM    9  C   UNL     1     -37.691 -50.078  11.325  1.00  0.00     0.038 C 
HETATM   10  C   UNL     1     -37.198 -50.806  12.575  1.00  0.00     0.273 C 
HETATM   11  N   UNL     1     -38.092 -50.378  13.664  1.00  0.00     0.097 N 
HETATM   12  C   UNL     1     -38.591 -49.050  13.282  1.00  0.00     0.279 C 
BRANCH  11  13
HETATM   13  C   UNL     1     -37.417 -50.359  14.984  1.00  0.00     0.389 C 
BRANCH  13  14
HETATM   14  C   UNL     1     -38.082 -51.119  16.156  1.00  0.00     0.413 C 
HETATM   15  F   UNL     1     -39.129 -50.452  16.690  1.00  0.00    -0.169 F 
HETATM   16  F   UNL     1     -37.192 -51.335  17.154  1.00  0.00    -0.169 F 
HETATM   17  F   UNL     1     -38.534 -52.328  15.748  1.00  0.00    -0.169 F 
ENDBRANCH  13  14
ENDBRANCH  11  13
ENDBRANCH   7   8
ENDBRANCH   1   7
BRANCH   4  18
HETATM   18  C   UNL     1     -43.618 -47.208   9.197  1.00  0.00     0.070 A 
HETATM   19  C   UNL     1     -44.998 -47.463   9.027  1.00  0.00     0.138 A 
HETATM   20  N   UNL     1     -45.717 -46.338   8.950  1.00  0.00    -0.310 N 
HETATM   21  N   UNL     1     -44.793 -45.370   9.054  1.00  0.00    -0.310 N 
ATOM     22  HN  UNL     1     -46.725 -46.240   8.839  1.00  0.00     0.186 HD
HETATM   23  C   UNL     1     -43.522 -45.840   9.245  1.00  0.00     0.138 A 
HETATM   24  H   UNL     1     -45.103 -44.407   8.978  1.00  0.00     0.186 HD
ENDBRANCH   4  18
TORSDOF 5
ENDMDL
MODEL 3
REMARK VINA RESULT:      -6.2      5.824      7.714
REMARK  5 active torsions:
REMARK  status: ('A' for Active; 'I' for Inactive)
REMARK    1  A    between atoms: C_2  and  C_5 
REMARK    2  A    between atoms: C_5  and  N_6 
REMARK    3  A    between atoms: C_9  and  C_10 
REMARK    4  A    between atoms: C_10  and  N_11 
REMARK       I    between atoms: N_11  and  C_12 
REMARK       I    between atoms: C_12  and  N_14 
REMARK    5  A    between atoms: N_14  and  C_15 
ROOT
HETATM    1  N   UNL     1     -41.207 -48.872  10.343  1.00  0.00    -0.342 N 
HETATM    2  C   UNL     1     -42.400 -48.198  10.436  1.00  0.00     0.320 C 
HETATM    3  O   UNL     1     -42.906 -47.906  11.512  1.00  0.00    -0.247 OA
HETATM    4  N   UNL     1     -42.951 -47.952   9.198  1.00  0.00    -0.306 N 
HETATM    5  H   UNL     1     -40.693 -48.869   9.468  1.00  0.00     0.164 HD
HETATM    6  H   UNL     1     -42.574 -48.449   8.407  1.00  0.00     0.171 HD
ENDROOT
BRANCH   1   7
HETATM    7  C   UNL     1     -40.534 -49.383  11.518  1.00  0.00     0.130 C 
BRANCH   7   8
HETATM    8  C   UNL     1     -39.262 -48.616  11.903  1.00  0.00     0.033 C 
HETATM    9  C   UNL     1     -39.159 -48.388  13.412  1.00  0.00     0.038 C 
HETATM   10  C   UNL     1     -39.620 -46.950  13.644  1.00  0.00     0.273 C 
HETATM   11  N   UNL     1     -39.996 -46.434  12.317  1.00  0.00     0.097 N 
HETATM   12  C   UNL     1     -39.205 -47.199  11.344  1.00  0.00     0.279 C 
BRANCH  11  13
HETATM   13  C   UNL     1     -39.774 -44.974  12.187  1.00  0.00     0.389 C 
BRANCH  13  14
HETATM   14  C   UNL     1     -40.301 -44.264  10.916  1.00  0.00     0.413 C 
HETATM   15  F   UNL     1     -39.427 -44.311   9.887  1.00  0.00    -0.169 F 
HETATM   16  F   UNL     1     -40.556 -42.958  11.167  1.00  0.00    -0.169 F 
HETATM   17  F   UNL     1     -41.456 -44.831  10.496  1.00  0.00    -0.169 F 
ENDBRANCH  13  14
ENDBRANCH  11  13
ENDBRANCH   7   8
ENDBRANCH   1   7
BRANCH   4  18
HETATM   18  C   UNL     1     -44.157 -47.298   9.031  1.00  0.00     0.070 A 
HETATM   19  C   UNL     1     -45.472 -47.802   8.902  1.00  0.00     0.138 A 
HETATM   20  N   UNL     1     -46.374 -46.830   8.726  1.00  0.00    -0.310 N 
HETATM   21  N   UNL     1     -45.632 -45.712   8.725  1.00  0.00    -0.310 N 
ATOM     22  HN  UNL     1     -47.384 -46.918   8.618  1.00  0.00     0.186 HD
HETATM   23  C   UNL     1     -44.299 -45.935   8.946  1.00  0.00     0.138 A 
HETATM   24  H   UNL     1     -46.102 -44.829   8.562  1.00  0.00     0.186 HD
ENDBRANCH   4  18
TORSDOF 5
ENDMDL
MODEL 4
REMARK VINA RESULT:      -6.1      3.870      5.932
REMARK  5 active torsions:
REMARK  status: ('A' for Active; 'I' for Inactive)
REMARK    1  A    between atoms: C_2  and  C_5 
REMARK    2  A    between atoms: C_5  and  N_6 
REMARK    3  A    between atoms: C_9  and  C_10 
REMARK    4  A    between atoms: C_10  and  N_11 
REMARK       I    between atoms: N_11  and  C_12 
REMARK       I    between atoms: C_12  and  N_14 
REMARK    5  A    between atoms: N_14  and  C_15 
ROOT
HETATM    1  N   UNL     1     -40.552 -48.700  10.830  1.00  0.00    -0.342 N 
HETATM    2  C   UNL     1     -41.494 -47.724  10.616  1.00  0.00     0.320 C 
HETATM    3  O   UNL     1     -41.365 -46.584  11.046  1.00  0.00    -0.247 OA
HETATM    4  N   UNL     1     -42.583 -48.201   9.923  1.00  0.00    -0.306 N 
HETATM    5  H   UNL     1     -40.555 -49.538  10.258  1.00  0.00     0.164 HD
HETATM    6  H   UNL     1     -42.688 -49.200   9.838  1.00  0.00     0.171 HD
ENDROOT
BRANCH   1   7
HETATM    7  C   UNL     1     -39.404 -48.470  11.681  1.00  0.00     0.130 C 
BRANCH   7   8
HETATM    8  C   UNL     1     -39.598 -48.912  13.138  1.00  0.00     0.033 C 
HETATM    9  C   UNL     1     -38.281 -49.324  13.797  1.00  0.00     0.038 C 
HETATM   10  C   UNL     1     -38.260 -50.851  13.754  1.00  0.00     0.273 C 
HETATM   11  N   UNL     1     -39.498 -51.247  13.062  1.00  0.00     0.097 N 
HETATM   12  C   UNL     1     -40.458 -50.160  13.294  1.00  0.00     0.279 C 
BRANCH  11  13
HETATM   13  C   UNL     1     -40.019 -52.556  13.524  1.00  0.00     0.389 C 
BRANCH  13  14
HETATM   14  C   UNL     1     -41.104 -53.254  12.670  1.00  0.00     0.413 C 
HETATM   15  F   UNL     1     -40.927 -54.591  12.583  1.00  0.00    -0.169 F 
HETATM   16  F   UNL     1     -41.107 -52.766  11.406  1.00  0.00    -0.169 F 
HETATM   17  F   UNL     1     -42.335 -53.039  13.191  1.00  0.00    -0.169 F 
ENDBRANCH  13  14
ENDBRANCH  11  13
ENDBRANCH   7   8
ENDBRANCH   1   7
BRANCH   4  18
HETATM   18  C   UNL     1     -43.669 -47.411   9.596  1.00  0.00     0.070 A 
HETATM   19  C   UNL     1     -43.745 -46.187   8.893  1.00  0.00     0.138 A 
HETATM   20  N   UNL     1     -44.996 -45.724   8.811  1.00  0.00    -0.310 N 
HETATM   21  N   UNL     1     -45.714 -46.643   9.475  1.00  0.00    -0.310 N 
ATOM     22  HN  UNL     1     -45.327 -44.875   8.353  1.00  0.00     0.186 HD
HETATM   23  C   UNL     1     -44.969 -47.698   9.931  1.00  0.00     0.138 A 
HETATM   24  H   UNL     1     -46.709 -46.482   9.585  1.00  0.00     0.186 HD
ENDBRANCH   4  18
TORSDOF 5
ENDMDL
MODEL 5
REMARK VINA RESULT:      -6.0      1.601      2.061
REMARK  5 active torsions:
REMARK  status: ('A' for Active; 'I' for Inactive)
REMARK    1  A    between atoms: C_2  and  C_5 
REMARK    2  A    between atoms: C_5  and  N_6 
REMARK    3  A    between atoms: C_9  and  C_10 
REMARK    4  A    between atoms: C_10  and  N_11 
REMARK       I    between atoms: N_11  and  C_12 
REMARK       I    between atoms: C_12  and  N_14 
REMARK    5  A    between atoms: N_14  and  C_15 
ROOT
HETATM    1  N   UNL     1     -41.228 -53.013  15.353  1.00  0.00    -0.342 N 
HETATM    2  C   UNL     1     -41.206 -51.988  14.439  1.00  0.00     0.320 C 
HETATM    3  O   UNL     1     -41.991 -51.049  14.487  1.00  0.00    -0.247 OA
HETATM    4  N   UNL     1     -40.249 -52.184  13.469  1.00  0.00    -0.306 N 
HETATM    5  H   UNL     1     -40.424 -53.624  15.446  1.00  0.00     0.164 HD
HETATM    6  H   UNL     1     -39.835 -53.100  13.392  1.00  0.00     0.171 HD
ENDROOT
BRANCH   1   7
HETATM    7  C   UNL     1     -42.263 -53.103  16.361  1.00  0.00     0.130 C 
BRANCH   7   8
HETATM    8  C   UNL     1     -43.327 -54.173  16.082  1.00  0.00     0.033 C 
HETATM    9  C   UNL     1     -43.042 -54.950  14.795  1.00  0.00     0.038 C 
HETATM   10  C   UNL     1     -43.952 -54.334  13.733  1.00  0.00     0.273 C 
HETATM   11  N   UNL     1     -44.671 -53.241  14.409  1.00  0.00     0.097 N 
HETATM   12  C   UNL     1     -44.719 -53.606  15.832  1.00  0.00     0.279 C 
BRANCH  11  13
HETATM   13  C   UNL     1     -46.024 -53.013  13.849  1.00  0.00     0.389 C 
BRANCH  13  14
HETATM   14  C   UNL     1     -46.398 -51.580  13.400  1.00  0.00     0.413 C 
HETATM   15  F   UNL     1     -47.029 -51.550  12.206  1.00  0.00    -0.169 F 
HETATM   16  F   UNL     1     -45.290 -50.808  13.288  1.00  0.00    -0.169 F 
HETATM   17  F   UNL     1     -47.212 -50.992  14.307  1.00  0.00    -0.169 F 
ENDBRANCH  13  14
ENDBRANCH  11  13
ENDBRANCH   7   8
ENDBRANCH   1   7
BRANCH   4  18
HETATM   18  C   UNL     1     -40.040 -51.295  12.430  1.00  0.00     0.070 A 
HETATM   19  C   UNL     1     -40.906 -50.855  11.403  1.00  0.00     0.138 A 
HETATM   20  N   UNL     1     -40.308 -50.002  10.565  1.00  0.00    -0.310 N 
HETATM   21  N   UNL     1     -39.059 -49.912  11.050  1.00  0.00    -0.310 N 
ATOM     22  HN  UNL     1     -40.705 -49.532   9.752  1.00  0.00     0.186 HD
HETATM   23  C   UNL     1     -38.859 -50.638  12.193  1.00  0.00     0.138 A 
HETATM   24  H   UNL     1     -38.393 -49.340  10.543  1.00  0.00     0.186 HD
ENDBRANCH   4  18
TORSDOF 5
ENDMDL
MODEL 6
REMARK VINA RESULT:      -6.0      3.022      3.885
REMARK  5 active torsions:
REMARK  status: ('A' for Active; 'I' for Inactive)
REMARK    1  A    between atoms: C_2  and  C_5 
REMARK    2  A    between atoms: C_5  and  N_6 
REMARK    3  A    between atoms: C_9  and  C_10 
REMARK    4  A    between atoms: C_10  and  N_11 
REMARK       I    between atoms: N_11  and  C_12 
REMARK       I    between atoms: C_12  and  N_14 
REMARK    5  A    between atoms: N_14  and  C_15 
ROOT
HETATM    1  N   UNL     1     -42.081 -49.350  11.984  1.00  0.00    -0.342 N 
HETATM    2  C   UNL     1     -42.866 -48.279  11.632  1.00  0.00     0.320 C 
HETATM    3  O   UNL     1     -43.207 -47.424  12.440  1.00  0.00    -0.247 OA
HETATM    4  N   UNL     1     -43.241 -48.328  10.309  1.00  0.00    -0.306 N 
HETATM    5  H   UNL     1     -41.607 -49.886  11.265  1.00  0.00     0.164 HD
HETATM    6  H   UNL     1     -43.107 -49.194   9.812  1.00  0.00     0.171 HD
ENDROOT
BRANCH   1   7
HETATM    7  C   UNL     1     -41.710 -49.595  13.361  1.00  0.00     0.130 C 
BRANCH   7   8
HETATM    8  C   UNL     1     -41.801 -51.066  13.789  1.00  0.00     0.033 C 
HETATM    9  C   UNL     1     -42.316 -51.965  12.663  1.00  0.00     0.038 C 
HETATM   10  C   UNL     1     -43.795 -52.198  12.968  1.00  0.00     0.273 C 
HETATM   11  N   UNL     1     -44.078 -51.422  14.187  1.00  0.00     0.097 N 
HETATM   12  C   UNL     1     -42.802 -51.321  14.909  1.00  0.00     0.279 C 
BRANCH  11  13
HETATM   13  C   UNL     1     -45.140 -52.034  15.021  1.00  0.00     0.389 C 
BRANCH  13  14
HETATM   14  C   UNL     1     -46.616 -51.771  14.634  1.00  0.00     0.413 C 
HETATM   15  F   UNL     1     -47.331 -52.908  14.485  1.00  0.00    -0.169 F 
HETATM   16  F   UNL     1     -46.691 -51.094  13.463  1.00  0.00    -0.169 F 
HETATM   17  F   UNL     1     -47.232 -51.022  15.577  1.00  0.00    -0.169 F 
ENDBRANCH  13  14
ENDBRANCH  11  13
ENDBRANCH   7   8
ENDBRANCH   1   7
BRANCH   4  18
HETATM   18  C   UNL     1     -44.043 -47.367   9.721  1.00  0.00     0.070 A 
HETATM   19  C   UNL     1     -43.741 -46.064   9.264  1.00  0.00     0.138 A 
HETATM   20  N   UNL     1     -44.815 -45.434   8.776  1.00  0.00    -0.310 N 
HETATM   21  N   UNL     1     -45.802 -46.330   8.938  1.00  0.00    -0.310 N 
ATOM     22  HN  UNL     1     -44.871 -44.498   8.377  1.00  0.00     0.186 HD
HETATM   23  C   UNL     1     -45.382 -47.522   9.464  1.00  0.00     0.138 A 
HETATM   24  H   UNL     1     -46.741 -46.055   8.673  1.00  0.00     0.186 HD
ENDBRANCH   4  18
TORSDOF 5
ENDMDL
MODEL 7
REMARK VINA RESULT:      -5.9      2.904      6.358
REMARK  5 active torsions:
REMARK  status: ('A' for Active; 'I' for Inactive)
REMARK    1  A    between atoms: C_2  and  C_5 
REMARK    2  A    between atoms: C_5  and  N_6 
REMARK    3  A    between atoms: C_9  and  C_10 
REMARK    4  A    between atoms: C_10  and  N_11 
REMARK       I    between atoms: N_11  and  C_12 
REMARK       I    between atoms: C_12  and  N_14 
REMARK    5  A    between atoms: N_14  and  C_15 
ROOT
HETATM    1  N   UNL     1     -41.280 -51.802  11.901  1.00  0.00    -0.342 N 
HETATM    2  C   UNL     1     -42.408 -52.022  12.654  1.00  0.00     0.320 C 
HETATM    3  O   UNL     1     -42.539 -51.571  13.785  1.00  0.00    -0.247 OA
HETATM    4  N   UNL     1     -43.311 -52.832  12.005  1.00  0.00    -0.306 N 
HETATM    5  H   UNL     1     -41.304 -51.959  10.899  1.00  0.00     0.164 HD
HETATM    6  H   UNL     1     -42.993 -53.338  11.193  1.00  0.00     0.171 HD
ENDROOT
BRANCH   1   7
HETATM    7  C   UNL     1     -40.127 -51.121  12.448  1.00  0.00     0.130 C 
BRANCH   7   8
HETATM    8  C   UNL     1     -39.480 -50.106  11.496  1.00  0.00     0.033 C 
HETATM    9  C   UNL     1     -38.728 -49.006  12.247  1.00  0.00     0.038 C 
HETATM   10  C   UNL     1     -39.666 -47.800  12.258  1.00  0.00     0.273 C 
HETATM   11  N   UNL     1     -40.893 -48.243  11.576  1.00  0.00     0.097 N 
HETATM   12  C   UNL     1     -40.484 -49.318  10.662  1.00  0.00     0.279 C 
BRANCH  11  13
HETATM   13  C   UNL     1     -41.582 -47.141  10.863  1.00  0.00     0.389 C 
BRANCH  13  14
HETATM   14  C   UNL     1     -42.998 -47.408  10.297  1.00  0.00     0.413 C 
HETATM   15  F   UNL     1     -43.750 -48.185  11.107  1.00  0.00    -0.169 F 
HETATM   16  F   UNL     1     -42.925 -48.033   9.097  1.00  0.00    -0.169 F 
HETATM   17  F   UNL     1     -43.666 -46.246  10.110  1.00  0.00    -0.169 F 
ENDBRANCH  13  14
ENDBRANCH  11  13
ENDBRANCH   7   8
ENDBRANCH   1   7
BRANCH   4  18
HETATM   18  C   UNL     1     -44.519 -53.208  12.564  1.00  0.00     0.070 A 
HETATM   19  C   UNL     1     -45.764 -52.541  12.610  1.00  0.00     0.138 A 
HETATM   20  N   UNL     1     -46.690 -53.237  13.277  1.00  0.00    -0.310 N 
HETATM   21  N   UNL     1     -46.030 -54.338  13.669  1.00  0.00    -0.310 N 
ATOM     22  HN  UNL     1     -47.664 -52.990  13.448  1.00  0.00     0.186 HD
HETATM   23  C   UNL     1     -44.734 -54.388  13.231  1.00  0.00     0.138 A 
HETATM   24  H   UNL     1     -46.527 -55.012  14.241  1.00  0.00     0.186 HD
ENDBRANCH   4  18
TORSDOF 5
ENDMDL
MODEL 8
REMARK VINA RESULT:      -5.9      4.473      6.137
REMARK  5 active torsions:
REMARK  status: ('A' for Active; 'I' for Inactive)
REMARK    1  A    between atoms: C_2  and  C_5 
REMARK    2  A    between atoms: C_5  and  N_6 
REMARK    3  A    between atoms: C_9  and  C_10 
REMARK    4  A    between atoms: C_10  and  N_11 
REMARK       I    between atoms: N_11  and  C_12 
REMARK       I    between atoms: C_12  and  N_14 
REMARK    5  A    between atoms: N_14  and  C_15 
ROOT
HETATM    1  N   UNL     1     -40.756 -49.304  10.560  1.00  0.00    -0.342 N 
HETATM    2  C   UNL     1     -41.888 -48.529  10.639  1.00  0.00     0.320 C 
HETATM    3  O   UNL     1     -42.712 -48.662  11.535  1.00  0.00    -0.247 OA
HETATM    4  N   UNL     1     -41.987 -47.653   9.583  1.00  0.00    -0.306 N 
HETATM    5  H   UNL     1     -39.981 -49.006   9.978  1.00  0.00     0.164 HD
HETATM    6  H   UNL     1     -41.386 -47.802   8.787  1.00  0.00     0.171 HD
ENDROOT
BRANCH   1   7
HETATM    7  C   UNL     1     -40.531 -50.407  11.469  1.00  0.00     0.130 C 
BRANCH   7   8
HETATM    8  C   UNL     1     -39.872 -50.010  12.797  1.00  0.00     0.033 C 
HETATM    9  C   UNL     1     -38.344 -50.020  12.710  1.00  0.00     0.038 C 
HETATM   10  C   UNL     1     -37.905 -51.338  13.344  1.00  0.00     0.273 C 
HETATM   11  N   UNL     1     -39.147 -52.033  13.721  1.00  0.00     0.097 N 
HETATM   12  C   UNL     1     -40.150 -50.981  13.938  1.00  0.00     0.279 C 
BRANCH  11  13
HETATM   13  C   UNL     1     -38.981 -52.895  14.916  1.00  0.00     0.389 C 
BRANCH  13  14
HETATM   14  C   UNL     1     -39.429 -54.373  14.819  1.00  0.00     0.413 C 
HETATM   15  F   UNL     1     -40.771 -54.520  14.871  1.00  0.00    -0.169 F 
HETATM   16  F   UNL     1     -38.906 -55.101  15.834  1.00  0.00    -0.169 F 
HETATM   17  F   UNL     1     -39.003 -54.928  13.660  1.00  0.00    -0.169 F 
ENDBRANCH  13  14
ENDBRANCH  11  13
ENDBRANCH   7   8
ENDBRANCH   1   7
BRANCH   4  18
HETATM   18  C   UNL     1     -43.045 -46.775   9.432  1.00  0.00     0.070 A 
HETATM   19  C   UNL     1     -44.302 -46.942   8.807  1.00  0.00     0.138 A 
HETATM   20  N   UNL     1     -45.043 -45.830   8.852  1.00  0.00    -0.310 N 
HETATM   21  N   UNL     1     -44.252 -44.953   9.489  1.00  0.00    -0.310 N 
ATOM     22  HN  UNL     1     -45.985 -45.683   8.488  1.00  0.00     0.186 HD
HETATM   23  C   UNL     1     -43.057 -45.483   9.895  1.00  0.00     0.138 A 
HETATM   24  H   UNL     1     -44.592 -44.005   9.607  1.00  0.00     0.186 HD
ENDBRANCH   4  18
TORSDOF 5
ENDMDL
MODEL 9
REMARK VINA RESULT:      -5.9      4.367      5.554
REMARK  5 active torsions:
REMARK  status: ('A' for Active; 'I' for Inactive)
REMARK    1  A    between atoms: C_2  and  C_5 
REMARK    2  A    between atoms: C_5  and  N_6 
REMARK    3  A    between atoms: C_9  and  C_10 
REMARK    4  A    between atoms: C_10  and  N_11 
REMARK       I    between atoms: N_11  and  C_12 
REMARK       I    between atoms: C_12  and  N_14 
REMARK    5  A    between atoms: N_14  and  C_15 
ROOT
HETATM    1  N   UNL     1     -41.601 -49.656  11.166  1.00  0.00    -0.342 N 
HETATM    2  C   UNL     1     -42.514 -48.630  11.122  1.00  0.00     0.320 C 
HETATM    3  O   UNL     1     -43.107 -48.238  12.120  1.00  0.00    -0.247 OA
HETATM    4  N   UNL     1     -42.698 -48.159   9.842  1.00  0.00    -0.306 N 
HETATM    5  H   UNL     1     -40.948 -49.783  10.400  1.00  0.00     0.164 HD
HETATM    6  H   UNL     1     -42.346 -48.715   9.079  1.00  0.00     0.171 HD
ENDROOT
BRANCH   1   7
HETATM    7  C   UNL     1     -41.375 -50.416  12.377  1.00  0.00     0.130 C 
BRANCH   7   8
HETATM    8  C   UNL     1     -42.339 -51.594  12.574  1.00  0.00     0.033 C 
HETATM    9  C   UNL     1     -43.198 -51.434  13.829  1.00  0.00     0.038 C 
HETATM   10  C   UNL     1     -42.539 -52.309  14.894  1.00  0.00     0.273 C 
HETATM   11  N   UNL     1     -41.347 -52.888  14.252  1.00  0.00     0.097 N 
HETATM   12  C   UNL     1     -41.640 -52.927  12.812  1.00  0.00     0.279 C 
BRANCH  11  13
HETATM   13  C   UNL     1     -41.003 -54.228  14.785  1.00  0.00     0.389 C 
BRANCH  13  14
HETATM   14  C   UNL     1     -39.513 -54.644  14.809  1.00  0.00     0.413 C 
HETATM   15  F   UNL     1     -39.272 -55.691  15.629  1.00  0.00    -0.169 F 
HETATM   16  F   UNL     1     -38.735 -53.618  15.230  1.00  0.00    -0.169 F 
HETATM   17  F   UNL     1     -39.092 -54.992  13.571  1.00  0.00    -0.169 F 
ENDBRANCH  13  14
ENDBRANCH  11  13
ENDBRANCH   7   8
ENDBRANCH   1   7
BRANCH   4  18
HETATM   18  C   UNL     1     -43.577 -47.135   9.539  1.00  0.00     0.070 A 
HETATM   19  C   UNL     1     -44.925 -47.169   9.114  1.00  0.00     0.138 A 
HETATM   20  N   UNL     1     -45.420 -45.946   8.897  1.00  0.00    -0.310 N 
HETATM   21  N   UNL     1     -44.384 -45.137   9.167  1.00  0.00    -0.310 N 
ATOM     22  HN  UNL     1     -46.360 -45.690   8.597  1.00  0.00     0.186 HD
HETATM   23  C   UNL     1     -43.266 -45.799   9.597  1.00  0.00     0.138 A 
HETATM   24  H   UNL     1     -44.510 -44.140   9.029  1.00  0.00     0.186 HD
ENDBRANCH   4  18
TORSDOF 5
ENDMDL
