MODEL 1
REMARK VINA RESULT:      -6.9      0.000      0.000
REMARK  4 active torsions:
REMARK  status: ('A' for Active; 'I' for Inactive)
REMARK    1  A    between atoms: N_11  and  C_12 
REMARK    2  A    between atoms: C_12  and  C_13 
REMARK    3  A    between atoms: C_13  and  O_14 
REMARK    4  A    between atoms: C_13  and  C_15 
ROOT
HETATM    1  C   UNL     1     -37.707 -50.554  12.099  1.00  0.00     0.089 C 
HETATM    2  C   UNL     1     -38.986 -49.818  11.942  1.00  0.00     0.080 A 
HETATM    3  N   UNL     1     -39.111 -48.645  11.356  1.00  0.00    -0.344 N 
ATOM      4  HN  UNL     1     -38.367 -48.083  10.942  1.00  0.00     0.167 HD
HETATM    5  C   UNL     1     -40.446 -48.336  11.417  1.00  0.00     0.060 A 
HETATM    6  C   UNL     1     -41.119 -47.204  10.931  1.00  0.00     0.032 A 
HETATM    7  C   UNL     1     -42.503 -47.109  11.113  1.00  0.00     0.002 A 
HETATM    8  C   UNL     1     -43.204 -48.123  11.768  1.00  0.00     0.002 A 
HETATM    9  C   UNL     1     -42.551 -49.263  12.253  1.00  0.00     0.032 A 
HETATM   10  C   UNL     1     -41.163 -49.341  12.060  1.00  0.00     0.062 A 
HETATM   11  N   UNL     1     -40.209 -50.281  12.381  1.00  0.00    -0.332 N 
ENDROOT
BRANCH  11  12
HETATM   12  C   UNL     1     -40.464 -51.584  12.978  1.00  0.00     0.167 C 
BRANCH  12  13
HETATM   13  C   UNL     1     -41.364 -52.490  12.118  1.00  0.00     0.169 C 
BRANCH  13  14
HETATM   14  O   UNL     1     -40.559 -53.374  11.332  1.00  0.00    -0.389 OA
HETATM   15  H   UNL     1     -39.960 -52.834  10.791  1.00  0.00     0.210 HD
ENDBRANCH  13  14
BRANCH  13  16
HETATM   16  C   UNL     1     -42.368 -53.344  12.880  1.00  0.00    -0.025 A 
HETATM   17  C   UNL     1     -43.726 -53.287  12.501  1.00  0.00     0.010 A 
HETATM   18  C   UNL     1     -44.705 -54.027  13.174  1.00  0.00     0.004 A 
HETATM   19  C   UNL     1     -44.346 -54.836  14.246  1.00  0.00     0.042 A 
HETATM   20  C   UNL     1     -43.013 -54.901  14.629  1.00  0.00     0.117 A 
HETATM   21  F   UNL     1     -42.662 -55.677  15.663  1.00  0.00    -0.206 F 
HETATM   22  C   UNL     1     -42.030 -54.172  13.961  1.00  0.00     0.052 A 
ENDBRANCH  13  16
ENDBRANCH  12  13
ENDBRANCH  11  12
TORSDOF 4
ENDMDL
MODEL 2
REMARK VINA RESULT:      -6.3      2.441      3.746
REMARK  4 active torsions:
REMARK  status: ('A' for Active; 'I' for Inactive)
REMARK    1  A    between atoms: N_11  and  C_12 
REMARK    2  A    between atoms: C_12  and  C_13 
REMARK    3  A    between atoms: C_13  and  O_14 
REMARK    4  A    between atoms: C_13  and  C_15 
ROOT
HETATM    1  C   UNL     1     -40.986 -54.158  14.324  1.00  0.00     0.089 C 
HETATM    2  C   UNL     1     -40.291 -52.972  13.763  1.00  0.00     0.080 A 
HETATM    3  N   UNL     1     -39.027 -52.671  13.979  1.00  0.00    -0.344 N 
ATOM      4  HN  UNL     1     -38.361 -53.189  14.552  1.00  0.00     0.167 HD
HETATM    5  C   UNL     1     -38.791 -51.518  13.274  1.00  0.00     0.060 A 
HETATM    6  C   UNL     1     -37.605 -50.778  13.152  1.00  0.00     0.032 A 
HETATM    7  C   UNL     1     -37.607 -49.619  12.367  1.00  0.00     0.002 A 
HETATM    8  C   UNL     1     -38.770 -49.206  11.715  1.00  0.00     0.002 A 
HETATM    9  C   UNL     1     -39.961 -49.936  11.819  1.00  0.00     0.032 A 
HETATM   10  C   UNL     1     -39.939 -51.095  12.609  1.00  0.00     0.062 A 
HETATM   11  N   UNL     1     -40.883 -52.043  12.933  1.00  0.00    -0.332 N 
ENDROOT
BRANCH  11  12
HETATM   12  C   UNL     1     -42.236 -52.116  12.400  1.00  0.00     0.167 C 
BRANCH  12  13
HETATM   13  C   UNL     1     -43.260 -51.293  13.202  1.00  0.00     0.169 C 
BRANCH  13  14
HETATM   14  O   UNL     1     -43.686 -50.162  12.436  1.00  0.00    -0.389 OA
HETATM   15  H   UNL     1     -44.114 -50.490  11.629  1.00  0.00     0.210 HD
ENDBRANCH  13  14
BRANCH  13  16
HETATM   16  C   UNL     1     -44.510 -52.039  13.648  1.00  0.00    -0.025 A 
HETATM   17  C   UNL     1     -45.568 -51.302  14.220  1.00  0.00     0.010 A 
HETATM   18  C   UNL     1     -46.735 -51.927  14.672  1.00  0.00     0.004 A 
HETATM   19  C   UNL     1     -46.865 -53.308  14.568  1.00  0.00     0.042 A 
HETATM   20  C   UNL     1     -45.832 -54.045  14.007  1.00  0.00     0.117 A 
HETATM   21  F   UNL     1     -45.952 -55.376  13.906  1.00  0.00    -0.206 F 
HETATM   22  C   UNL     1     -44.667 -53.430  13.548  1.00  0.00     0.052 A 
ENDBRANCH  13  16
ENDBRANCH  12  13
ENDBRANCH  11  12
TORSDOF 4
ENDMDL
MODEL 3
REMARK VINA RESULT:      -6.3      2.872      6.054
REMARK  4 active torsions:
REMARK  status: ('A' for Active; 'I' for Inactive)
REMARK    1  A    between atoms: N_11  and  C_12 
REMARK    2  A    between atoms: C_12  and  C_13 
REMARK    3  A    between atoms: C_13  and  O_14 
REMARK    4  A    between atoms: C_13  and  C_15 
ROOT
HETATM    1  C   UNL     1     -42.958 -49.538  13.876  1.00  0.00     0.089 C 
HETATM    2  C   UNL     1     -43.661 -50.843  13.970  1.00  0.00     0.080 A 
HETATM    3  N   UNL     1     -44.670 -51.095  14.778  1.00  0.00    -0.344 N 
ATOM      4  HN  UNL     1     -45.100 -50.453  15.444  1.00  0.00     0.167 HD
HETATM    5  C   UNL     1     -45.023 -52.400  14.540  1.00  0.00     0.060 A 
HETATM    6  C   UNL     1     -46.044 -53.164  15.124  1.00  0.00     0.032 A 
HETATM    7  C   UNL     1     -46.216 -54.491  14.714  1.00  0.00     0.002 A 
HETATM    8  C   UNL     1     -45.385 -55.045  13.739  1.00  0.00     0.002 A 
HETATM    9  C   UNL     1     -44.365 -54.295  13.139  1.00  0.00     0.032 A 
HETATM   10  C   UNL     1     -44.209 -52.967  13.562  1.00  0.00     0.062 A 
HETATM   11  N   UNL     1     -43.350 -51.950  13.210  1.00  0.00    -0.332 N 
ENDROOT
BRANCH  11  12
HETATM   12  C   UNL     1     -42.362 -52.002  12.141  1.00  0.00     0.167 C 
BRANCH  12  13
HETATM   13  C   UNL     1     -40.976 -52.482  12.606  1.00  0.00     0.169 C 
BRANCH  13  14
HETATM   14  O   UNL     1     -40.496 -53.507  11.730  1.00  0.00    -0.389 OA
HETATM   15  H   UNL     1     -39.540 -53.381  11.615  1.00  0.00     0.210 HD
ENDBRANCH  13  14
BRANCH  13  16
HETATM   16  C   UNL     1     -39.896 -51.412  12.691  1.00  0.00    -0.025 A 
HETATM   17  C   UNL     1     -39.954 -50.322  11.798  1.00  0.00     0.010 A 
HETATM   18  C   UNL     1     -38.981 -49.316  11.806  1.00  0.00     0.004 A 
HETATM   19  C   UNL     1     -37.924 -49.384  12.707  1.00  0.00     0.042 A 
HETATM   20  C   UNL     1     -37.855 -50.451  13.591  1.00  0.00     0.117 A 
HETATM   21  F   UNL     1     -36.837 -50.522  14.459  1.00  0.00    -0.206 F 
HETATM   22  C   UNL     1     -38.824 -51.455  13.594  1.00  0.00     0.052 A 
ENDBRANCH  13  16
ENDBRANCH  12  13
ENDBRANCH  11  12
TORSDOF 4
ENDMDL
MODEL 4
REMARK VINA RESULT:      -6.2      2.810      4.412
REMARK  4 active torsions:
REMARK  status: ('A' for Active; 'I' for Inactive)
REMARK    1  A    between atoms: N_11  and  C_12 
REMARK    2  A    between atoms: C_12  and  C_13 
REMARK    3  A    between atoms: C_13  and  O_14 
REMARK    4  A    between atoms: C_13  and  C_15 
ROOT
HETATM    1  C   UNL     1     -41.044 -50.069  15.127  1.00  0.00     0.089 C 
HETATM    2  C   UNL     1     -42.480 -50.435  15.027  1.00  0.00     0.080 A 
HETATM    3  N   UNL     1     -43.351 -50.330  16.008  1.00  0.00    -0.344 N 
ATOM      4  HN  UNL     1     -43.173 -49.998  16.956  1.00  0.00     0.167 HD
HETATM    5  C   UNL     1     -44.549 -50.758  15.493  1.00  0.00     0.060 A 
HETATM    6  C   UNL     1     -45.805 -50.839  16.114  1.00  0.00     0.032 A 
HETATM    7  C   UNL     1     -46.896 -51.314  15.377  1.00  0.00     0.002 A 
HETATM    8  C   UNL     1     -46.737 -51.701  14.046  1.00  0.00     0.002 A 
HETATM    9  C   UNL     1     -45.493 -51.620  13.407  1.00  0.00     0.032 A 
HETATM   10  C   UNL     1     -44.412 -51.141  14.162  1.00  0.00     0.062 A 
HETATM   11  N   UNL     1     -43.082 -50.920  13.884  1.00  0.00    -0.332 N 
ENDROOT
BRANCH  11  12
HETATM   12  C   UNL     1     -42.447 -51.065  12.582  1.00  0.00     0.167 C 
BRANCH  12  13
HETATM   13  C   UNL     1     -42.102 -52.521  12.223  1.00  0.00     0.169 C 
BRANCH  13  14
HETATM   14  O   UNL     1     -41.207 -52.549  11.107  1.00  0.00    -0.389 OA
HETATM   15  H   UNL     1     -40.595 -53.293  11.231  1.00  0.00     0.210 HD
ENDBRANCH  13  14
BRANCH  13  16
HETATM   16  C   UNL     1     -41.472 -53.348  13.335  1.00  0.00    -0.025 A 
HETATM   17  C   UNL     1     -40.076 -53.273  13.523  1.00  0.00     0.010 A 
HETATM   18  C   UNL     1     -39.429 -54.025  14.510  1.00  0.00     0.004 A 
HETATM   19  C   UNL     1     -40.167 -54.875  15.327  1.00  0.00     0.042 A 
HETATM   20  C   UNL     1     -41.541 -54.958  15.152  1.00  0.00     0.117 A 
HETATM   21  F   UNL     1     -42.256 -55.777  15.936  1.00  0.00    -0.206 F 
HETATM   22  C   UNL     1     -42.195 -54.207  14.175  1.00  0.00     0.052 A 
ENDBRANCH  13  16
ENDBRANCH  12  13
ENDBRANCH  11  12
TORSDOF 4
ENDMDL
MODEL 5
REMARK VINA RESULT:      -6.1      3.056      4.103
REMARK  4 active torsions:
REMARK  status: ('A' for Active; 'I' for Inactive)
REMARK    1  A    between atoms: N_11  and  C_12 
REMARK    2  A    between atoms: C_12  and  C_13 
REMARK    3  A    between atoms: C_13  and  O_14 
REMARK    4  A    between atoms: C_13  and  C_15 
ROOT
HETATM    1  C   UNL     1     -39.534 -53.957  16.697  1.00  0.00     0.089 C 
HETATM    2  C   UNL     1     -39.067 -52.765  15.945  1.00  0.00     0.080 A 
HETATM    3  N   UNL     1     -38.482 -51.718  16.487  1.00  0.00    -0.344 N 
ATOM      4  HN  UNL     1     -38.276 -51.571  17.475  1.00  0.00     0.167 HD
HETATM    5  C   UNL     1     -38.206 -50.864  15.448  1.00  0.00     0.060 A 
HETATM    6  C   UNL     1     -37.579 -49.609  15.472  1.00  0.00     0.032 A 
HETATM    7  C   UNL     1     -37.406 -48.915  14.270  1.00  0.00     0.002 A 
HETATM    8  C   UNL     1     -37.850 -49.462  13.065  1.00  0.00     0.002 A 
HETATM    9  C   UNL     1     -38.472 -50.716  13.020  1.00  0.00     0.032 A 
HETATM   10  C   UNL     1     -38.635 -51.397  14.236  1.00  0.00     0.062 A 
HETATM   11  N   UNL     1     -39.177 -52.616  14.578  1.00  0.00    -0.332 N 
ENDROOT
BRANCH  11  12
HETATM   12  C   UNL     1     -39.675 -53.619  13.647  1.00  0.00     0.167 C 
BRANCH  12  13
HETATM   13  C   UNL     1     -40.842 -53.124  12.774  1.00  0.00     0.169 C 
BRANCH  13  14
HETATM   14  O   UNL     1     -40.646 -53.536  11.418  1.00  0.00    -0.389 OA
HETATM   15  H   UNL     1     -39.709 -53.762  11.305  1.00  0.00     0.210 HD
ENDBRANCH  13  14
BRANCH  13  16
HETATM   16  C   UNL     1     -42.230 -53.586  13.195  1.00  0.00    -0.025 A 
HETATM   17  C   UNL     1     -42.340 -54.517  14.251  1.00  0.00     0.010 A 
HETATM   18  C   UNL     1     -43.583 -55.002  14.672  1.00  0.00     0.004 A 
HETATM   19  C   UNL     1     -44.745 -54.570  14.041  1.00  0.00     0.042 A 
HETATM   20  C   UNL     1     -44.650 -53.655  13.001  1.00  0.00     0.117 A 
HETATM   21  F   UNL     1     -45.766 -53.237  12.388  1.00  0.00    -0.206 F 
HETATM   22  C   UNL     1     -43.416 -53.161  12.578  1.00  0.00     0.052 A 
ENDBRANCH  13  16
ENDBRANCH  12  13
ENDBRANCH  11  12
TORSDOF 4
ENDMDL
MODEL 6
REMARK VINA RESULT:      -6.1      2.985      5.993
REMARK  4 active torsions:
REMARK  status: ('A' for Active; 'I' for Inactive)
REMARK    1  A    between atoms: N_11  and  C_12 
REMARK    2  A    between atoms: C_12  and  C_13 
REMARK    3  A    between atoms: C_13  and  O_14 
REMARK    4  A    between atoms: C_13  and  C_15 
ROOT
HETATM    1  C   UNL     1     -39.309 -54.255  14.224  1.00  0.00     0.089 C 
HETATM    2  C   UNL     1     -40.784 -54.249  14.057  1.00  0.00     0.080 A 
HETATM    3  N   UNL     1     -41.636 -54.812  14.888  1.00  0.00    -0.344 N 
ATOM      4  HN  UNL     1     -41.414 -55.326  15.742  1.00  0.00     0.167 HD
HETATM    5  C   UNL     1     -42.883 -54.565  14.371  1.00  0.00     0.060 A 
HETATM    6  C   UNL     1     -44.141 -54.934  14.871  1.00  0.00     0.032 A 
HETATM    7  C   UNL     1     -45.288 -54.564  14.159  1.00  0.00     0.002 A 
HETATM    8  C   UNL     1     -45.182 -53.839  12.972  1.00  0.00     0.002 A 
HETATM    9  C   UNL     1     -43.935 -53.455  12.461  1.00  0.00     0.032 A 
HETATM   10  C   UNL     1     -42.798 -53.835  13.189  1.00  0.00     0.062 A 
HETATM   11  N   UNL     1     -41.446 -53.640  13.011  1.00  0.00    -0.332 N 
ENDROOT
BRANCH  11  12
HETATM   12  C   UNL     1     -40.831 -52.835  11.965  1.00  0.00     0.167 C 
BRANCH  12  13
HETATM   13  C   UNL     1     -40.327 -51.466  12.457  1.00  0.00     0.169 C 
BRANCH  13  14
HETATM   14  O   UNL     1     -39.050 -51.180  11.880  1.00  0.00    -0.389 OA
HETATM   15  H   UNL     1     -39.123 -50.348  11.384  1.00  0.00     0.210 HD
ENDBRANCH  13  14
BRANCH  13  16
HETATM   16  C   UNL     1     -41.236 -50.280  12.166  1.00  0.00    -0.025 A 
HETATM   17  C   UNL     1     -42.412 -50.128  12.930  1.00  0.00     0.010 A 
HETATM   18  C   UNL     1     -43.304 -49.074  12.699  1.00  0.00     0.004 A 
HETATM   19  C   UNL     1     -43.039 -48.152  11.692  1.00  0.00     0.042 A 
HETATM   20  C   UNL     1     -41.885 -48.290  10.934  1.00  0.00     0.117 A 
HETATM   21  F   UNL     1     -41.627 -47.406   9.961  1.00  0.00    -0.206 F 
HETATM   22  C   UNL     1     -40.988 -49.334  11.161  1.00  0.00     0.052 A 
ENDBRANCH  13  16
ENDBRANCH  12  13
ENDBRANCH  11  12
TORSDOF 4
ENDMDL
MODEL 7
REMARK VINA RESULT:      -5.8      2.449      3.689
REMARK  4 active torsions:
REMARK  status: ('A' for Active; 'I' for Inactive)
REMARK    1  A    between atoms: N_11  and  C_12 
REMARK    2  A    between atoms: C_12  and  C_13 
REMARK    3  A    between atoms: C_13  and  O_14 
REMARK    4  A    between atoms: C_13  and  C_15 
ROOT
HETATM    1  C   UNL     1     -38.624 -48.549  14.968  1.00  0.00     0.089 C 
HETATM    2  C   UNL     1     -39.050 -47.507  13.999  1.00  0.00     0.080 A 
HETATM    3  N   UNL     1     -39.265 -46.244  14.301  1.00  0.00    -0.344 N 
ATOM      4  HN  UNL     1     -39.179 -45.808  15.219  1.00  0.00     0.167 HD
HETATM    5  C   UNL     1     -39.627 -45.635  13.126  1.00  0.00     0.060 A 
HETATM    6  C   UNL     1     -39.953 -44.291  12.886  1.00  0.00     0.032 A 
HETATM    7  C   UNL     1     -40.295 -43.899  11.587  1.00  0.00     0.002 A 
HETATM    8  C   UNL     1     -40.310 -44.829  10.546  1.00  0.00     0.002 A 
HETATM    9  C   UNL     1     -39.980 -46.172  10.765  1.00  0.00     0.032 A 
HETATM   10  C   UNL     1     -39.639 -46.546  12.074  1.00  0.00     0.062 A 
HETATM   11  N   UNL     1     -39.262 -47.736  12.656  1.00  0.00    -0.332 N 
ENDROOT
BRANCH  11  12
HETATM   12  C   UNL     1     -39.018 -48.988  11.954  1.00  0.00     0.167 C 
BRANCH  12  13
HETATM   13  C   UNL     1     -40.295 -49.808  11.696  1.00  0.00     0.169 C 
BRANCH  13  14
HETATM   14  O   UNL     1     -40.446 -50.047  10.293  1.00  0.00    -0.389 OA
HETATM   15  H   UNL     1     -39.592 -49.877   9.865  1.00  0.00     0.210 HD
ENDBRANCH  13  14
BRANCH  13  16
HETATM   16  C   UNL     1     -40.373 -51.156  12.399  1.00  0.00    -0.025 A 
HETATM   17  C   UNL     1     -39.302 -51.546  13.231  1.00  0.00     0.010 A 
HETATM   18  C   UNL     1     -39.298 -52.782  13.888  1.00  0.00     0.004 A 
HETATM   19  C   UNL     1     -40.364 -53.658  13.720  1.00  0.00     0.042 A 
HETATM   20  C   UNL     1     -41.424 -53.287  12.904  1.00  0.00     0.117 A 
HETATM   21  F   UNL     1     -42.453 -54.129  12.737  1.00  0.00    -0.206 F 
HETATM   22  C   UNL     1     -41.440 -52.055  12.250  1.00  0.00     0.052 A 
ENDBRANCH  13  16
ENDBRANCH  12  13
ENDBRANCH  11  12
TORSDOF 4
ENDMDL
MODEL 8
REMARK VINA RESULT:      -5.7      3.892      5.502
REMARK  4 active torsions:
REMARK  status: ('A' for Active; 'I' for Inactive)
REMARK    1  A    between atoms: N_11  and  C_12 
REMARK    2  A    between atoms: C_12  and  C_13 
REMARK    3  A    between atoms: C_13  and  O_14 
REMARK    4  A    between atoms: C_13  and  C_15 
ROOT
HETATM    1  C   UNL     1     -42.426 -50.066  14.732  1.00  0.00     0.089 C 
HETATM    2  C   UNL     1     -43.733 -50.294  15.400  1.00  0.00     0.080 A 
HETATM    3  N   UNL     1     -44.018 -49.933  16.634  1.00  0.00    -0.344 N 
ATOM      4  HN  UNL     1     -43.400 -49.464  17.296  1.00  0.00     0.167 HD
HETATM    5  C   UNL     1     -45.318 -50.319  16.846  1.00  0.00     0.060 A 
HETATM    6  C   UNL     1     -46.117 -50.163  17.989  1.00  0.00     0.032 A 
HETATM    7  C   UNL     1     -47.431 -50.643  17.969  1.00  0.00     0.002 A 
HETATM    8  C   UNL     1     -47.940 -51.267  16.829  1.00  0.00     0.002 A 
HETATM    9  C   UNL     1     -47.161 -51.425  15.675  1.00  0.00     0.032 A 
HETATM   10  C   UNL     1     -45.847 -50.936  15.715  1.00  0.00     0.062 A 
HETATM   11  N   UNL     1     -44.816 -50.904  14.802  1.00  0.00    -0.332 N 
ENDROOT
BRANCH  11  12
HETATM   12  C   UNL     1     -44.893 -51.334  13.414  1.00  0.00     0.167 C 
BRANCH  12  13
HETATM   13  C   UNL     1     -44.867 -52.863  13.240  1.00  0.00     0.169 C 
BRANCH  13  14
HETATM   14  O   UNL     1     -44.941 -53.198  11.851  1.00  0.00    -0.389 OA
HETATM   15  H   UNL     1     -45.280 -54.105  11.777  1.00  0.00     0.210 HD
ENDBRANCH  13  14
BRANCH  13  16
HETATM   16  C   UNL     1     -43.652 -53.577  13.817  1.00  0.00    -0.025 A 
HETATM   17  C   UNL     1     -43.814 -54.340  14.993  1.00  0.00     0.010 A 
HETATM   18  C   UNL     1     -42.735 -55.001  15.590  1.00  0.00     0.004 A 
HETATM   19  C   UNL     1     -41.468 -54.908  15.025  1.00  0.00     0.042 A 
HETATM   20  C   UNL     1     -41.295 -54.161  13.869  1.00  0.00     0.117 A 
HETATM   21  F   UNL     1     -40.075 -54.066  13.322  1.00  0.00    -0.206 F 
HETATM   22  C   UNL     1     -42.366 -53.503  13.263  1.00  0.00     0.052 A 
ENDBRANCH  13  16
ENDBRANCH  12  13
ENDBRANCH  11  12
TORSDOF 4
ENDMDL
MODEL 9
REMARK VINA RESULT:      -5.7      2.378      3.319
REMARK  4 active torsions:
REMARK  status: ('A' for Active; 'I' for Inactive)
REMARK    1  A    between atoms: N_11  and  C_12 
REMARK    2  A    between atoms: C_12  and  C_13 
REMARK    3  A    between atoms: C_13  and  O_14 
REMARK    4  A    between atoms: C_13  and  C_15 
ROOT
HETATM    1  C   UNL     1     -40.891 -51.425  16.725  1.00  0.00     0.089 C 
HETATM    2  C   UNL     1     -40.366 -50.750  15.511  1.00  0.00     0.080 A 
HETATM    3  N   UNL     1     -40.585 -49.490  15.199  1.00  0.00    -0.344 N 
ATOM      4  HN  UNL     1     -41.136 -48.812  15.727  1.00  0.00     0.167 HD
HETATM    5  C   UNL     1     -39.918 -49.275  14.019  1.00  0.00     0.060 A 
HETATM    6  C   UNL     1     -39.814 -48.100  13.259  1.00  0.00     0.032 A 
HETATM    7  C   UNL     1     -39.070 -48.124  12.074  1.00  0.00     0.002 A 
HETATM    8  C   UNL     1     -38.440 -49.296  11.656  1.00  0.00     0.002 A 
HETATM    9  C   UNL     1     -38.525 -50.477  12.405  1.00  0.00     0.032 A 
HETATM   10  C   UNL     1     -39.275 -50.433  13.590  1.00  0.00     0.062 A 
HETATM   11  N   UNL     1     -39.572 -51.361  14.563  1.00  0.00    -0.332 N 
ENDROOT
BRANCH  11  12
HETATM   12  C   UNL     1     -39.046 -52.717  14.636  1.00  0.00     0.167 C 
BRANCH  12  13
HETATM   13  C   UNL     1     -39.710 -53.691  13.647  1.00  0.00     0.169 C 
BRANCH  13  14
HETATM   14  O   UNL     1     -38.945 -54.897  13.562  1.00  0.00    -0.389 OA
HETATM   15  H   UNL     1     -38.014 -54.675  13.720  1.00  0.00     0.210 HD
ENDBRANCH  13  14
BRANCH  13  16
HETATM   16  C   UNL     1     -41.147 -54.082  13.962  1.00  0.00    -0.025 A 
HETATM   17  C   UNL     1     -41.419 -54.715  15.194  1.00  0.00     0.010 A 
HETATM   18  C   UNL     1     -42.712 -55.123  15.537  1.00  0.00     0.004 A 
HETATM   19  C   UNL     1     -43.763 -54.911  14.650  1.00  0.00     0.042 A 
HETATM   20  C   UNL     1     -43.509 -54.289  13.436  1.00  0.00     0.117 A 
HETATM   21  F   UNL     1     -44.517 -54.084  12.577  1.00  0.00    -0.206 F 
HETATM   22  C   UNL     1     -42.223 -53.874  13.088  1.00  0.00     0.052 A 
ENDBRANCH  13  16
ENDBRANCH  12  13
ENDBRANCH  11  12
TORSDOF 4
ENDMDL
