MODEL 1
REMARK VINA RESULT:      -6.2      0.000      0.000
REMARK  4 active torsions:
REMARK  status: ('A' for Active; 'I' for Inactive)
REMARK    1  A    between atoms: O_2  and  C_3 
REMARK    2  A    between atoms: C_3  and  C_4 
REMARK    3  A    between atoms: C_4  and  N_5 
REMARK    4  A    between atoms: C_6  and  N_18 
ROOT
HETATM    1  N   UNL     1     -40.621 -48.767  11.898  1.00  0.00    -0.172 N 
HETATM    2  C   UNL     1     -41.651 -49.684  12.113  1.00  0.00     0.685 A 
HETATM    3  N   UNL     1     -42.733 -49.301  11.453  1.00  0.00    -0.174 N 
ATOM      4  HN  UNL     1     -43.613 -49.812  11.368  1.00  0.00     0.186 HD
HETATM    5  C   UNL     1     -42.438 -48.084  10.907  1.00  0.00     0.160 A 
HETATM    6  N   UNL     1     -43.269 -47.274  10.154  1.00  0.00    -0.287 N 
HETATM    7  C   UNL     1     -44.632 -47.625   9.825  1.00  0.00     0.163 C 
HETATM    8  C   UNL     1     -42.787 -46.054   9.689  1.00  0.00     0.330 A 
HETATM    9  O   UNL     1     -43.453 -45.266   9.013  1.00  0.00    -0.246 OA
HETATM   10  N   UNL     1     -41.487 -45.728  10.007  1.00  0.00    -0.273 N 
HETATM   11  C   UNL     1     -40.604 -46.471  10.754  1.00  0.00     0.280 A 
HETATM   12  O   UNL     1     -39.476 -46.057  10.994  1.00  0.00    -0.265 OA
HETATM   13  C   UNL     1     -41.155 -47.714  11.191  1.00  0.00     0.164 A 
HETATM   14  H   UNL     1     -41.156 -44.836   9.678  1.00  0.00     0.173 HD
ENDROOT
BRANCH   2  15
HETATM   15  N   UNL     1     -41.500 -50.847  12.815  1.00  0.00    -0.214 N 
HETATM   16  C   UNL     1     -41.657 -52.136  12.106  1.00  0.00     0.171 C 
HETATM   17  C   UNL     1     -42.925 -52.908  12.548  1.00  0.00     0.292 C 
HETATM   18  N   UNL     1     -43.086 -53.085  14.009  1.00  0.00     0.087 N 
HETATM   19  C   UNL     1     -42.135 -54.047  14.562  1.00  0.00     0.310 C 
HETATM   20  C   UNL     1     -42.970 -51.764  14.649  1.00  0.00     0.292 C 
HETATM   21  C   UNL     1     -41.722 -50.937  14.269  1.00  0.00     0.171 C 
ENDBRANCH   2  15
BRANCH   1  22
HETATM   22  C   UNL     1     -39.226 -48.863  12.275  1.00  0.00     0.174 C 
BRANCH  22  23
HETATM   23  C   UNL     1     -38.351 -49.757  11.404  1.00  0.00     0.187 C 
BRANCH  23  24
HETATM   24  O   UNL     1     -38.209 -50.999  12.102  1.00  0.00    -0.394 OA
HETATM   25  C   UNL     1     -37.875 -50.828  13.470  1.00  0.00     0.201 C 
ENDBRANCH  23  24
ENDBRANCH  22  23
ENDBRANCH   1  22
TORSDOF 4
ENDMDL
MODEL 2
REMARK VINA RESULT:      -5.9      2.014      3.090
REMARK  4 active torsions:
REMARK  status: ('A' for Active; 'I' for Inactive)
REMARK    1  A    between atoms: O_2  and  C_3 
REMARK    2  A    between atoms: C_3  and  C_4 
REMARK    3  A    between atoms: C_4  and  N_5 
REMARK    4  A    between atoms: C_6  and  N_18 
ROOT
HETATM    1  N   UNL     1     -41.451 -51.357  12.524  1.00  0.00    -0.172 N 
HETATM    2  C   UNL     1     -42.796 -51.237  12.877  1.00  0.00     0.685 A 
HETATM    3  N   UNL     1     -43.254 -50.055  12.490  1.00  0.00    -0.174 N 
ATOM      4  HN  UNL     1     -44.216 -49.721  12.552  1.00  0.00     0.186 HD
HETATM    5  C   UNL     1     -42.180 -49.373  11.993  1.00  0.00     0.160 A 
HETATM    6  N   UNL     1     -42.158 -48.082  11.496  1.00  0.00    -0.287 N 
HETATM    7  C   UNL     1     -43.329 -47.238  11.433  1.00  0.00     0.163 C 
HETATM    8  C   UNL     1     -40.955 -47.552  11.038  1.00  0.00     0.330 A 
HETATM    9  O   UNL     1     -40.838 -46.413  10.581  1.00  0.00    -0.246 OA
HETATM   10  N   UNL     1     -39.844 -48.364  11.102  1.00  0.00    -0.273 N 
HETATM   11  C   UNL     1     -39.783 -49.650  11.586  1.00  0.00     0.280 A 
HETATM   12  O   UNL     1     -38.722 -50.262  11.617  1.00  0.00    -0.265 OA
HETATM   13  C   UNL     1     -41.049 -50.138  12.030  1.00  0.00     0.164 A 
HETATM   14  H   UNL     1     -38.979 -47.963  10.782  1.00  0.00     0.173 HD
ENDROOT
BRANCH   2  15
HETATM   15  N   UNL     1     -43.529 -52.245  13.438  1.00  0.00    -0.214 N 
HETATM   16  C   UNL     1     -44.399 -53.066  12.568  1.00  0.00     0.171 C 
HETATM   17  C   UNL     1     -45.905 -52.830  12.837  1.00  0.00     0.292 C 
HETATM   18  N   UNL     1     -46.323 -52.936  14.254  1.00  0.00     0.087 N 
HETATM   19  C   UNL     1     -46.308 -54.314  14.738  1.00  0.00     0.310 C 
HETATM   20  C   UNL     1     -45.455 -52.059  15.058  1.00  0.00     0.292 C 
HETATM   21  C   UNL     1     -43.935 -52.244  14.855  1.00  0.00     0.171 C 
ENDBRANCH   2  15
BRANCH   1  22
HETATM   22  C   UNL     1     -40.596 -52.523  12.592  1.00  0.00     0.174 C 
BRANCH  22  23
HETATM   23  C   UNL     1     -39.896 -52.771  13.923  1.00  0.00     0.187 C 
BRANCH  23  24
HETATM   24  O   UNL     1     -38.954 -53.828  13.701  1.00  0.00    -0.394 OA
HETATM   25  C   UNL     1     -39.062 -54.871  14.656  1.00  0.00     0.201 C 
ENDBRANCH  23  24
ENDBRANCH  22  23
ENDBRANCH   1  22
TORSDOF 4
ENDMDL
MODEL 3
REMARK VINA RESULT:      -5.6      2.780      6.022
REMARK  4 active torsions:
REMARK  status: ('A' for Active; 'I' for Inactive)
REMARK    1  A    between atoms: O_2  and  C_3 
REMARK    2  A    between atoms: C_3  and  C_4 
REMARK    3  A    between atoms: C_4  and  N_5 
REMARK    4  A    between atoms: C_6  and  N_18 
ROOT
HETATM    1  N   UNL     1     -41.729 -51.272  12.510  1.00  0.00    -0.172 N 
HETATM    2  C   UNL     1     -42.413 -50.062  12.385  1.00  0.00     0.685 A 
HETATM    3  N   UNL     1     -43.664 -50.214  12.793  1.00  0.00    -0.174 N 
ATOM      4  HN  UNL     1     -44.372 -49.485  12.881  1.00  0.00     0.186 HD
HETATM    5  C   UNL     1     -43.817 -51.542  13.072  1.00  0.00     0.160 A 
HETATM    6  N   UNL     1     -44.962 -52.186  13.503  1.00  0.00    -0.287 N 
HETATM    7  C   UNL     1     -46.217 -51.505  13.728  1.00  0.00     0.163 C 
HETATM    8  C   UNL     1     -44.924 -53.560  13.728  1.00  0.00     0.330 A 
HETATM    9  O   UNL     1     -45.895 -54.219  14.110  1.00  0.00    -0.246 OA
HETATM   10  N   UNL     1     -43.725 -54.200  13.512  1.00  0.00    -0.273 N 
HETATM   11  C   UNL     1     -42.549 -53.635  13.079  1.00  0.00     0.280 A 
HETATM   12  O   UNL     1     -41.549 -54.321  12.895  1.00  0.00    -0.265 OA
HETATM   13  C   UNL     1     -42.650 -52.225  12.877  1.00  0.00     0.164 A 
HETATM   14  H   UNL     1     -43.715 -55.195  13.663  1.00  0.00     0.173 HD
ENDROOT
BRANCH   2  15
HETATM   15  N   UNL     1     -41.823 -48.891  11.999  1.00  0.00    -0.214 N 
HETATM   16  C   UNL     1     -41.895 -47.723  12.904  1.00  0.00     0.171 C 
HETATM   17  C   UNL     1     -42.789 -46.589  12.344  1.00  0.00     0.292 C 
HETATM   18  N   UNL     1     -42.487 -46.166  10.958  1.00  0.00     0.087 N 
HETATM   19  C   UNL     1     -41.236 -45.419  10.862  1.00  0.00     0.310 C 
HETATM   20  C   UNL     1     -42.481 -47.364  10.101  1.00  0.00     0.292 C 
HETATM   21  C   UNL     1     -41.600 -48.536  10.587  1.00  0.00     0.171 C 
ENDBRANCH   2  15
BRANCH   1  22
HETATM   22  C   UNL     1     -40.314 -51.536  12.348  1.00  0.00     0.174 C 
BRANCH  22  23
HETATM   23  C   UNL     1     -39.485 -51.585  13.626  1.00  0.00     0.187 C 
BRANCH  23  24
HETATM   24  O   UNL     1     -38.145 -51.904  13.235  1.00  0.00    -0.394 OA
HETATM   25  C   UNL     1     -37.511 -50.851  12.528  1.00  0.00     0.201 C 
ENDBRANCH  23  24
ENDBRANCH  22  23
ENDBRANCH   1  22
TORSDOF 4
ENDMDL
MODEL 4
REMARK VINA RESULT:      -5.5      1.435      1.663
REMARK  4 active torsions:
REMARK  status: ('A' for Active; 'I' for Inactive)
REMARK    1  A    between atoms: O_2  and  C_3 
REMARK    2  A    between atoms: C_3  and  C_4 
REMARK    3  A    between atoms: C_4  and  N_5 
REMARK    4  A    between atoms: C_6  and  N_18 
ROOT
HETATM    1  N   UNL     1     -40.927 -49.752  13.039  1.00  0.00    -0.172 N 
HETATM    2  C   UNL     1     -42.142 -50.394  12.795  1.00  0.00     0.685 A 
HETATM    3  N   UNL     1     -42.820 -49.727  11.873  1.00  0.00    -0.174 N 
ATOM      4  HN  UNL     1     -43.706 -50.001  11.446  1.00  0.00     0.186 HD
HETATM    5  C   UNL     1     -42.098 -48.599  11.608  1.00  0.00     0.160 A 
HETATM    6  N   UNL     1     -42.421 -47.577  10.733  1.00  0.00    -0.287 N 
HETATM    7  C   UNL     1     -43.629 -47.566   9.940  1.00  0.00     0.163 C 
HETATM    8  C   UNL     1     -41.555 -46.495  10.605  1.00  0.00     0.330 A 
HETATM    9  O   UNL     1     -41.759 -45.538   9.854  1.00  0.00    -0.246 OA
HETATM   10  N   UNL     1     -40.406 -46.514  11.364  1.00  0.00    -0.273 N 
HETATM   11  C   UNL     1     -40.018 -47.485  12.258  1.00  0.00     0.280 A 
HETATM   12  O   UNL     1     -38.980 -47.373  12.899  1.00  0.00    -0.265 OA
HETATM   13  C   UNL     1     -40.943 -48.570  12.335  1.00  0.00     0.164 A 
HETATM   14  H   UNL     1     -39.796 -45.718  11.273  1.00  0.00     0.173 HD
ENDROOT
BRANCH   2  15
HETATM   15  N   UNL     1     -42.499 -51.588  13.357  1.00  0.00    -0.214 N 
HETATM   16  C   UNL     1     -42.606 -52.783  12.492  1.00  0.00     0.171 C 
HETATM   17  C   UNL     1     -44.065 -53.274  12.331  1.00  0.00     0.292 C 
HETATM   18  N   UNL     1     -44.815 -53.467  13.594  1.00  0.00     0.087 N 
HETATM   19  C   UNL     1     -44.355 -54.633  14.342  1.00  0.00     0.310 C 
HETATM   20  C   UNL     1     -44.713 -52.229  14.384  1.00  0.00     0.292 C 
HETATM   21  C   UNL     1     -43.284 -51.681  14.601  1.00  0.00     0.171 C 
ENDBRANCH   2  15
BRANCH   1  22
HETATM   22  C   UNL     1     -39.804 -50.206  13.832  1.00  0.00     0.174 C 
BRANCH  22  23
HETATM   23  C   UNL     1     -38.864 -51.202  13.163  1.00  0.00     0.187 C 
BRANCH  23  24
HETATM   24  O   UNL     1     -37.654 -50.493  12.872  1.00  0.00    -0.394 OA
HETATM   25  C   UNL     1     -37.487 -50.230  11.488  1.00  0.00     0.201 C 
ENDBRANCH  23  24
ENDBRANCH  22  23
ENDBRANCH   1  22
TORSDOF 4
ENDMDL
MODEL 5
REMARK VINA RESULT:      -5.4      2.065      2.642
REMARK  4 active torsions:
REMARK  status: ('A' for Active; 'I' for Inactive)
REMARK    1  A    between atoms: O_2  and  C_3 
REMARK    2  A    between atoms: C_3  and  C_4 
REMARK    3  A    between atoms: C_4  and  N_5 
REMARK    4  A    between atoms: C_6  and  N_18 
ROOT
HETATM    1  N   UNL     1     -41.269 -47.913  12.374  1.00  0.00    -0.172 N 
HETATM    2  C   UNL     1     -41.358 -49.115  11.672  1.00  0.00     0.685 A 
HETATM    3  N   UNL     1     -41.948 -48.906  10.504  1.00  0.00    -0.174 N 
ATOM      4  HN  UNL     1     -42.083 -49.586   9.755  1.00  0.00     0.186 HD
HETATM    5  C   UNL     1     -42.339 -47.598  10.502  1.00  0.00     0.160 A 
HETATM    6  N   UNL     1     -43.023 -46.924   9.506  1.00  0.00    -0.287 N 
HETATM    7  C   UNL     1     -43.437 -47.547   8.269  1.00  0.00     0.163 C 
HETATM    8  C   UNL     1     -43.345 -45.582   9.692  1.00  0.00     0.330 A 
HETATM    9  O   UNL     1     -43.954 -44.902   8.863  1.00  0.00    -0.246 OA
HETATM   10  N   UNL     1     -42.946 -44.998  10.873  1.00  0.00    -0.273 N 
HETATM   11  C   UNL     1     -42.272 -45.598  11.910  1.00  0.00     0.280 A 
HETATM   12  O   UNL     1     -41.997 -44.974  12.929  1.00  0.00    -0.265 OA
HETATM   13  C   UNL     1     -41.964 -46.968  11.654  1.00  0.00     0.164 A 
HETATM   14  H   UNL     1     -43.198 -44.032  11.001  1.00  0.00     0.173 HD
ENDROOT
BRANCH   2  15
HETATM   15  N   UNL     1     -40.812 -50.292  12.104  1.00  0.00    -0.214 N 
HETATM   16  C   UNL     1     -41.525 -51.073  13.138  1.00  0.00     0.171 C 
HETATM   17  C   UNL     1     -40.776 -51.092  14.493  1.00  0.00     0.292 C 
HETATM   18  N   UNL     1     -39.349 -51.482  14.426  1.00  0.00     0.087 N 
HETATM   19  C   UNL     1     -39.172 -52.904  14.147  1.00  0.00     0.310 C 
HETATM   20  C   UNL     1     -38.687 -50.635  13.419  1.00  0.00     0.292 C 
HETATM   21  C   UNL     1     -39.368 -50.575  12.034  1.00  0.00     0.171 C 
ENDBRANCH   2  15
BRANCH   1  22
HETATM   22  C   UNL     1     -40.559 -47.630  13.604  1.00  0.00     0.174 C 
BRANCH  22  23
HETATM   23  C   UNL     1     -39.172 -47.017  13.457  1.00  0.00     0.187 C 
BRANCH  23  24
HETATM   24  O   UNL     1     -38.533 -47.134  14.734  1.00  0.00    -0.394 OA
HETATM   25  C   UNL     1     -39.360 -47.748  15.710  1.00  0.00     0.201 C 
ENDBRANCH  23  24
ENDBRANCH  22  23
ENDBRANCH   1  22
TORSDOF 4
ENDMDL
MODEL 6
REMARK VINA RESULT:      -5.1      3.330      5.110
REMARK  4 active torsions:
REMARK  status: ('A' for Active; 'I' for Inactive)
REMARK    1  A    between atoms: O_2  and  C_3 
REMARK    2  A    between atoms: C_3  and  C_4 
REMARK    3  A    between atoms: C_4  and  N_5 
REMARK    4  A    between atoms: C_6  and  N_18 
ROOT
HETATM    1  N   UNL     1     -39.600 -48.679  13.408  1.00  0.00    -0.172 N 
HETATM    2  C   UNL     1     -38.866 -47.900  14.304  1.00  0.00     0.685 A 
HETATM    3  N   UNL     1     -38.914 -46.629  13.931  1.00  0.00    -0.174 N 
ATOM      4  HN  UNL     1     -38.530 -45.829  14.434  1.00  0.00     0.186 HD
HETATM    5  C   UNL     1     -39.580 -46.605  12.740  1.00  0.00     0.160 A 
HETATM    6  N   UNL     1     -39.851 -45.504  11.948  1.00  0.00    -0.287 N 
HETATM    7  C   UNL     1     -39.444 -44.160  12.293  1.00  0.00     0.163 C 
HETATM    8  C   UNL     1     -40.541 -45.681  10.751  1.00  0.00     0.330 A 
HETATM    9  O   UNL     1     -40.825 -44.761   9.981  1.00  0.00    -0.246 OA
HETATM   10  N   UNL     1     -40.924 -46.965  10.430  1.00  0.00    -0.273 N 
HETATM   11  C   UNL     1     -40.688 -48.107  11.157  1.00  0.00     0.280 A 
HETATM   12  O   UNL     1     -41.057 -49.202  10.748  1.00  0.00    -0.265 OA
HETATM   13  C   UNL     1     -39.987 -47.857  12.376  1.00  0.00     0.164 A 
HETATM   14  H   UNL     1     -41.408 -47.081   9.556  1.00  0.00     0.173 HD
ENDROOT
BRANCH   2  15
HETATM   15  N   UNL     1     -38.288 -48.389  15.442  1.00  0.00    -0.214 N 
HETATM   16  C   UNL     1     -38.796 -47.933  16.754  1.00  0.00     0.171 C 
HETATM   17  C   UNL     1     -37.778 -47.046  17.513  1.00  0.00     0.292 C 
HETATM   18  N   UNL     1     -36.414 -47.607  17.640  1.00  0.00     0.087 N 
HETATM   19  C   UNL     1     -36.356 -48.723  18.580  1.00  0.00     0.310 C 
HETATM   20  C   UNL     1     -35.947 -47.993  16.297  1.00  0.00     0.292 C 
HETATM   21  C   UNL     1     -36.903 -48.891  15.482  1.00  0.00     0.171 C 
ENDBRANCH   2  15
BRANCH   1  22
HETATM   22  C   UNL     1     -39.964 -50.077  13.508  1.00  0.00     0.174 C 
BRANCH  22  23
HETATM   23  C   UNL     1     -39.005 -51.072  12.865  1.00  0.00     0.187 C 
BRANCH  23  24
HETATM   24  O   UNL     1     -39.638 -52.355  12.932  1.00  0.00    -0.394 OA
HETATM   25  C   UNL     1     -40.853 -52.410  12.201  1.00  0.00     0.201 C 
ENDBRANCH  23  24
ENDBRANCH  22  23
ENDBRANCH   1  22
TORSDOF 4
ENDMDL
MODEL 7
REMARK VINA RESULT:      -5.0      2.849      7.141
REMARK  4 active torsions:
REMARK  status: ('A' for Active; 'I' for Inactive)
REMARK    1  A    between atoms: O_2  and  C_3 
REMARK    2  A    between atoms: C_3  and  C_4 
REMARK    3  A    between atoms: C_4  and  N_5 
REMARK    4  A    between atoms: C_6  and  N_18 
ROOT
HETATM    1  N   UNL     1     -40.865 -47.384  11.425  1.00  0.00    -0.172 N 
HETATM    2  C   UNL     1     -40.572 -46.127  11.955  1.00  0.00     0.685 A 
HETATM    3  N   UNL     1     -39.557 -46.227  12.802  1.00  0.00    -0.174 N 
ATOM      4  HN  UNL     1     -39.083 -45.462  13.282  1.00  0.00     0.186 HD
HETATM    5  C   UNL     1     -39.273 -47.559  12.903  1.00  0.00     0.160 A 
HETATM    6  N   UNL     1     -38.309 -48.157  13.694  1.00  0.00    -0.287 N 
HETATM    7  C   UNL     1     -37.427 -47.415  14.565  1.00  0.00     0.163 C 
HETATM    8  C   UNL     1     -38.175 -49.543  13.668  1.00  0.00     0.330 A 
HETATM    9  O   UNL     1     -37.347 -50.164  14.339  1.00  0.00    -0.246 OA
HETATM   10  N   UNL     1     -39.020 -50.242  12.835  1.00  0.00    -0.273 N 
HETATM   11  C   UNL     1     -40.004 -49.724  12.027  1.00  0.00     0.280 A 
HETATM   12  O   UNL     1     -40.714 -50.457  11.349  1.00  0.00    -0.265 OA
HETATM   13  C   UNL     1     -40.084 -48.300  12.091  1.00  0.00     0.164 A 
HETATM   14  H   UNL     1     -38.922 -51.244  12.838  1.00  0.00     0.173 HD
ENDROOT
BRANCH   2  15
HETATM   15  N   UNL     1     -41.185 -44.971  11.559  1.00  0.00    -0.214 N 
HETATM   16  C   UNL     1     -40.359 -43.882  10.993  1.00  0.00     0.171 C 
HETATM   17  C   UNL     1     -40.288 -42.645  11.922  1.00  0.00     0.292 C 
HETATM   18  N   UNL     1     -41.591 -42.129  12.397  1.00  0.00     0.087 N 
HETATM   19  C   UNL     1     -42.348 -41.466  11.338  1.00  0.00     0.310 C 
HETATM   20  C   UNL     1     -42.341 -43.247  12.993  1.00  0.00     0.292 C 
HETATM   21  C   UNL     1     -42.469 -44.515  12.120  1.00  0.00     0.171 C 
ENDBRANCH   2  15
BRANCH   1  22
HETATM   22  C   UNL     1     -41.771 -47.726  10.348  1.00  0.00     0.174 C 
BRANCH  22  23
HETATM   23  C   UNL     1     -43.235 -47.909  10.730  1.00  0.00     0.187 C 
BRANCH  23  24
HETATM   24  O   UNL     1     -43.975 -46.919  10.006  1.00  0.00    -0.394 OA
HETATM   25  C   UNL     1     -43.377 -46.581   8.765  1.00  0.00     0.201 C 
ENDBRANCH  23  24
ENDBRANCH  22  23
ENDBRANCH   1  22
TORSDOF 4
ENDMDL
MODEL 8
REMARK VINA RESULT:      -5.0      3.832      6.407
REMARK  4 active torsions:
REMARK  status: ('A' for Active; 'I' for Inactive)
REMARK    1  A    between atoms: O_2  and  C_3 
REMARK    2  A    between atoms: C_3  and  C_4 
REMARK    3  A    between atoms: C_4  and  N_5 
REMARK    4  A    between atoms: C_6  and  N_18 
ROOT
HETATM    1  N   UNL     1     -41.510 -53.198  14.799  1.00  0.00    -0.172 N 
HETATM    2  C   UNL     1     -40.195 -53.399  15.222  1.00  0.00     0.685 A 
HETATM    3  N   UNL     1     -39.380 -52.617  14.529  1.00  0.00    -0.174 N 
ATOM      4  HN  UNL     1     -38.376 -52.499  14.671  1.00  0.00     0.186 HD
HETATM    5  C   UNL     1     -40.152 -52.000  13.586  1.00  0.00     0.160 A 
HETATM    6  N   UNL     1     -39.739 -51.112  12.609  1.00  0.00    -0.287 N 
HETATM    7  C   UNL     1     -38.365 -50.697  12.446  1.00  0.00     0.163 C 
HETATM    8  C   UNL     1     -40.680 -50.591  11.725  1.00  0.00     0.330 A 
HETATM    9  O   UNL     1     -40.407 -49.797  10.822  1.00  0.00    -0.246 OA
HETATM   10  N   UNL     1     -41.988 -50.993  11.888  1.00  0.00    -0.273 N 
HETATM   11  C   UNL     1     -42.474 -51.873  12.826  1.00  0.00     0.280 A 
HETATM   12  O   UNL     1     -43.662 -52.175  12.851  1.00  0.00    -0.265 OA
HETATM   13  C   UNL     1     -41.463 -52.363  13.707  1.00  0.00     0.164 A 
HETATM   14  H   UNL     1     -42.655 -50.621  11.233  1.00  0.00     0.173 HD
ENDROOT
BRANCH   2  15
HETATM   15  N   UNL     1     -39.847 -54.206  16.269  1.00  0.00    -0.214 N 
HETATM   16  C   UNL     1     -39.397 -53.583  17.533  1.00  0.00     0.171 C 
HETATM   17  C   UNL     1     -37.895 -53.828  17.817  1.00  0.00     0.292 C 
HETATM   18  N   UNL     1     -37.453 -55.238  17.736  1.00  0.00     0.087 N 
HETATM   19  C   UNL     1     -37.940 -56.040  18.856  1.00  0.00     0.310 C 
HETATM   20  C   UNL     1     -37.886 -55.784  16.438  1.00  0.00     0.292 C 
HETATM   21  C   UNL     1     -39.378 -55.591  16.088  1.00  0.00     0.171 C 
ENDBRANCH   2  15
BRANCH   1  22
HETATM   22  C   UNL     1     -42.737 -53.702  15.379  1.00  0.00     0.174 C 
BRANCH  22  23
HETATM   23  C   UNL     1     -43.097 -55.145  15.049  1.00  0.00     0.187 C 
BRANCH  23  24
HETATM   24  O   UNL     1     -44.448 -55.133  14.571  1.00  0.00    -0.394 OA
HETATM   25  C   UNL     1     -45.276 -54.227  15.281  1.00  0.00     0.201 C 
ENDBRANCH  23  24
ENDBRANCH  22  23
ENDBRANCH   1  22
TORSDOF 4
ENDMDL
MODEL 9
REMARK VINA RESULT:      -4.9      3.614      6.482
REMARK  4 active torsions:
REMARK  status: ('A' for Active; 'I' for Inactive)
REMARK    1  A    between atoms: O_2  and  C_3 
REMARK    2  A    between atoms: C_3  and  C_4 
REMARK    3  A    between atoms: C_4  and  N_5 
REMARK    4  A    between atoms: C_6  and  N_18 
ROOT
HETATM    1  N   UNL     1     -42.096 -52.412  14.008  1.00  0.00    -0.172 N 
HETATM    2  C   UNL     1     -42.386 -51.158  13.470  1.00  0.00     0.685 A 
HETATM    3  N   UNL     1     -43.696 -50.955  13.496  1.00  0.00    -0.174 N 
ATOM      4  HN  UNL     1     -44.188 -50.101  13.234  1.00  0.00     0.186 HD
HETATM    5  C   UNL     1     -44.254 -52.118  13.943  1.00  0.00     0.160 A 
HETATM    6  N   UNL     1     -45.598 -52.399  14.108  1.00  0.00    -0.287 N 
HETATM    7  C   UNL     1     -46.647 -51.449  13.815  1.00  0.00     0.163 C 
HETATM    8  C   UNL     1     -45.977 -53.656  14.570  1.00  0.00     0.330 A 
HETATM    9  O   UNL     1     -47.149 -53.998  14.746  1.00  0.00    -0.246 OA
HETATM   10  N   UNL     1     -44.971 -54.555  14.846  1.00  0.00    -0.273 N 
HETATM   11  C   UNL     1     -43.618 -54.356  14.702  1.00  0.00     0.280 A 
HETATM   12  O   UNL     1     -42.819 -55.250  14.956  1.00  0.00    -0.265 OA
HETATM   13  C   UNL     1     -43.295 -53.046  14.236  1.00  0.00     0.164 A 
HETATM   14  H   UNL     1     -45.259 -55.465  15.165  1.00  0.00     0.173 HD
ENDROOT
BRANCH   2  15
HETATM   15  N   UNL     1     -41.434 -50.255  13.085  1.00  0.00    -0.214 N 
HETATM   16  C   UNL     1     -41.194 -49.066  13.930  1.00  0.00     0.171 C 
HETATM   17  C   UNL     1     -41.647 -47.750  13.251  1.00  0.00     0.292 C 
HETATM   18  N   UNL     1     -41.139 -47.534  11.877  1.00  0.00     0.087 N 
HETATM   19  C   UNL     1     -39.712 -47.221  11.854  1.00  0.00     0.310 C 
HETATM   20  C   UNL     1     -41.454 -48.729  11.076  1.00  0.00     0.292 C 
HETATM   21  C   UNL     1     -41.020 -50.082  11.681  1.00  0.00     0.171 C 
ENDBRANCH   2  15
BRANCH   1  22
HETATM   22  C   UNL     1     -40.806 -52.983  14.335  1.00  0.00     0.174 C 
BRANCH  22  23
HETATM   23  C   UNL     1     -40.143 -53.821  13.248  1.00  0.00     0.187 C 
BRANCH  23  24
HETATM   24  O   UNL     1     -38.878 -54.245  13.770  1.00  0.00    -0.394 OA
HETATM   25  C   UNL     1     -38.997 -54.979  14.978  1.00  0.00     0.201 C 
ENDBRANCH  23  24
ENDBRANCH  22  23
ENDBRANCH   1  22
TORSDOF 4
ENDMDL
