MODEL 1
REMARK VINA RESULT:      -6.3      0.000      0.000
REMARK  5 active torsions:
REMARK  status: ('A' for Active; 'I' for Inactive)
REMARK    1  A    between atoms: C_5  and  C_6 
REMARK    2  A    between atoms: C_6  and  C_7 
REMARK    3  A    between atoms: C_7  and  N_8 
REMARK       I    between atoms: N_8  and  C_9 
REMARK       I    between atoms: C_9  and  N_11 
REMARK    4  A    between atoms: C_14  and  C_15 
REMARK    5  A    between atoms: C_15  and  O_16 
ROOT
HETATM    1  N   UNL     1     -41.682 -50.986  11.923  1.00  0.00    -0.343 N 
HETATM    2  C   UNL     1     -41.492 -52.266  12.370  1.00  0.00     0.318 C 
HETATM    3  O   UNL     1     -40.398 -52.818  12.259  1.00  0.00    -0.247 OA
HETATM    4  N   UNL     1     -42.590 -52.899  12.927  1.00  0.00    -0.334 N 
HETATM    5  C   UNL     1     -43.971 -52.407  12.918  1.00  0.00     0.128 C 
HETATM    6  C   UNL     1     -44.669 -52.716  14.246  1.00  0.00     0.027 C 
HETATM    7  C   UNL     1     -44.560 -54.198  14.651  1.00  0.00     0.012 C 
HETATM    8  C   UNL     1     -43.091 -54.637  14.604  1.00  0.00     0.027 C 
HETATM    9  C   UNL     1     -42.436 -54.312  13.266  1.00  0.00     0.128 C 
HETATM   10  H   UNL     1     -42.343 -50.420  12.440  1.00  0.00     0.164 HD
ENDROOT
BRANCH   1  11
HETATM   11  C   UNL     1     -40.528 -50.249  11.434  1.00  0.00     0.130 C 
BRANCH  11  12
HETATM   12  C   UNL     1     -40.685 -48.733  11.521  1.00  0.00     0.077 C 
BRANCH  12  13
HETATM   13  C   UNL     1     -41.904 -48.232  10.812  1.00  0.00     0.018 A 
HETATM   14  N   UNL     1     -41.947 -48.315   9.428  1.00  0.00    -0.357 N 
HETATM   15  C   UNL     1     -43.074 -47.805   8.981  1.00  0.00     0.046 A 
ATOM     16  HN  UNL     1     -41.213 -48.713   8.842  1.00  0.00     0.166 HD
HETATM   17  C   UNL     1     -43.441 -47.702   7.544  1.00  0.00     0.076 C 
HETATM   18  S   UNL     1     -44.155 -47.225  10.186  1.00  0.00    -0.087 SA
HETATM   19  C   UNL     1     -43.027 -47.673  11.394  1.00  0.00     0.076 A 
ENDBRANCH  12  13
ENDBRANCH  11  12
ENDBRANCH   1  11
BRANCH   7  20
HETATM   20  C   UNL     1     -45.443 -55.112  13.791  1.00  0.00     0.168 C 
BRANCH  20  21
HETATM   21  O   UNL     1     -46.674 -55.376  14.451  1.00  0.00    -0.400 OA
HETATM   22  H   UNL     1     -47.386 -55.008  13.899  1.00  0.00     0.209 HD
ENDBRANCH  20  21
ENDBRANCH   7  20
TORSDOF 5
ENDMDL
MODEL 2
REMARK VINA RESULT:      -5.9      2.416      2.909
REMARK  5 active torsions:
REMARK  status: ('A' for Active; 'I' for Inactive)
REMARK    1  A    between atoms: C_5  and  C_6 
REMARK    2  A    between atoms: C_6  and  C_7 
REMARK    3  A    between atoms: C_7  and  N_8 
REMARK       I    between atoms: N_8  and  C_9 
REMARK       I    between atoms: C_9  and  N_11 
REMARK    4  A    between atoms: C_14  and  C_15 
REMARK    5  A    between atoms: C_15  and  O_16 
ROOT
HETATM    1  N   UNL     1     -42.917 -49.788  12.539  1.00  0.00    -0.343 N 
HETATM    2  C   UNL     1     -43.514 -49.868  13.768  1.00  0.00     0.318 C 
HETATM    3  O   UNL     1     -43.230 -49.069  14.660  1.00  0.00    -0.247 OA
HETATM    4  N   UNL     1     -44.424 -50.893  13.952  1.00  0.00    -0.334 N 
HETATM    5  C   UNL     1     -44.675 -52.006  13.030  1.00  0.00     0.128 C 
HETATM    6  C   UNL     1     -46.167 -52.349  12.980  1.00  0.00     0.027 C 
HETATM    7  C   UNL     1     -46.778 -52.574  14.376  1.00  0.00     0.012 C 
HETATM    8  C   UNL     1     -46.443 -51.383  15.282  1.00  0.00     0.027 C 
HETATM    9  C   UNL     1     -44.949 -51.077  15.303  1.00  0.00     0.128 C 
HETATM   10  H   UNL     1     -43.478 -50.070  11.744  1.00  0.00     0.164 HD
ENDROOT
BRANCH   1  11
HETATM   11  C   UNL     1     -42.040 -48.659  12.270  1.00  0.00     0.130 C 
BRANCH  11  12
HETATM   12  C   UNL     1     -42.778 -47.396  11.834  1.00  0.00     0.077 C 
BRANCH  12  13
HETATM   13  C   UNL     1     -43.419 -47.532  10.488  1.00  0.00     0.018 A 
HETATM   14  N   UNL     1     -44.803 -47.602  10.416  1.00  0.00    -0.357 N 
HETATM   15  C   UNL     1     -45.181 -47.747   9.165  1.00  0.00     0.046 A 
ATOM     16  HN  UNL     1     -45.434 -47.549  11.216  1.00  0.00     0.166 HD
HETATM   17  C   UNL     1     -46.594 -47.886   8.723  1.00  0.00     0.076 C 
HETATM   18  S   UNL     1     -43.913 -47.778   8.005  1.00  0.00    -0.087 SA
HETATM   19  C   UNL     1     -42.771 -47.602   9.268  1.00  0.00     0.076 A 
ENDBRANCH  12  13
ENDBRANCH  11  12
ENDBRANCH   1  11
BRANCH   7  20
HETATM   20  C   UNL     1     -46.331 -53.899  15.009  1.00  0.00     0.168 C 
BRANCH  20  21
HETATM   21  O   UNL     1     -47.051 -54.986  14.442  1.00  0.00    -0.400 OA
HETATM   22  H   UNL     1     -47.122 -55.675  15.125  1.00  0.00     0.209 HD
ENDBRANCH  20  21
ENDBRANCH   7  20
TORSDOF 5
ENDMDL
MODEL 3
REMARK VINA RESULT:      -5.7      1.775      2.220
REMARK  5 active torsions:
REMARK  status: ('A' for Active; 'I' for Inactive)
REMARK    1  A    between atoms: C_5  and  C_6 
REMARK    2  A    between atoms: C_6  and  C_7 
REMARK    3  A    between atoms: C_7  and  N_8 
REMARK       I    between atoms: N_8  and  C_9 
REMARK       I    between atoms: C_9  and  N_11 
REMARK    4  A    between atoms: C_14  and  C_15 
REMARK    5  A    between atoms: C_15  and  O_16 
ROOT
HETATM    1  N   UNL     1     -41.533 -50.648  13.093  1.00  0.00    -0.343 N 
HETATM    2  C   UNL     1     -42.815 -50.377  13.489  1.00  0.00     0.318 C 
HETATM    3  O   UNL     1     -43.164 -49.227  13.753  1.00  0.00    -0.247 OA
HETATM    4  N   UNL     1     -43.675 -51.456  13.591  1.00  0.00    -0.334 N 
HETATM    5  C   UNL     1     -43.304 -52.872  13.499  1.00  0.00     0.128 C 
HETATM    6  C   UNL     1     -44.374 -53.668  12.745  1.00  0.00     0.027 C 
HETATM    7  C   UNL     1     -45.791 -53.453  13.307  1.00  0.00     0.012 C 
HETATM    8  C   UNL     1     -46.084 -51.950  13.399  1.00  0.00     0.027 C 
HETATM    9  C   UNL     1     -44.997 -51.197  14.158  1.00  0.00     0.128 C 
HETATM   10  H   UNL     1     -41.413 -51.413  12.439  1.00  0.00     0.164 HD
ENDROOT
BRANCH   1  11
HETATM   11  C   UNL     1     -40.631 -49.530  12.865  1.00  0.00     0.130 C 
BRANCH  11  12
HETATM   12  C   UNL     1     -40.371 -49.241  11.389  1.00  0.00     0.077 C 
BRANCH  12  13
HETATM   13  C   UNL     1     -41.260 -48.170  10.839  1.00  0.00     0.018 A 
HETATM   14  N   UNL     1     -42.240 -48.527   9.923  1.00  0.00    -0.357 N 
HETATM   15  C   UNL     1     -42.900 -47.460   9.531  1.00  0.00     0.046 A 
ATOM     16  HN  UNL     1     -42.421 -49.478   9.601  1.00  0.00     0.166 HD
HETATM   17  C   UNL     1     -44.000 -47.470   8.531  1.00  0.00     0.076 C 
HETATM   18  S   UNL     1     -42.410 -45.978  10.253  1.00  0.00    -0.087 SA
HETATM   19  C   UNL     1     -41.215 -46.822  11.143  1.00  0.00     0.076 A 
ENDBRANCH  12  13
ENDBRANCH  11  12
ENDBRANCH   1  11
BRANCH   7  20
HETATM   20  C   UNL     1     -46.001 -54.146  14.660  1.00  0.00     0.168 C 
BRANCH  20  21
HETATM   21  O   UNL     1     -46.815 -55.301  14.503  1.00  0.00    -0.400 OA
HETATM   22  H   UNL     1     -46.372 -55.884  13.862  1.00  0.00     0.209 HD
ENDBRANCH  20  21
ENDBRANCH   7  20
TORSDOF 5
ENDMDL
MODEL 4
REMARK VINA RESULT:      -5.6      3.174      4.184
REMARK  5 active torsions:
REMARK  status: ('A' for Active; 'I' for Inactive)
REMARK    1  A    between atoms: C_5  and  C_6 
REMARK    2  A    between atoms: C_6  and  C_7 
REMARK    3  A    between atoms: C_7  and  N_8 
REMARK       I    between atoms: N_8  and  C_9 
REMARK       I    between atoms: C_9  and  N_11 
REMARK    4  A    between atoms: C_14  and  C_15 
REMARK    5  A    between atoms: C_15  and  O_16 
ROOT
HETATM    1  N   UNL     1     -42.479 -49.213  11.302  1.00  0.00    -0.343 N 
HETATM    2  C   UNL     1     -41.184 -49.583  11.547  1.00  0.00     0.318 C 
HETATM    3  O   UNL     1     -40.244 -48.912  11.123  1.00  0.00    -0.247 OA
HETATM    4  N   UNL     1     -40.997 -50.747  12.272  1.00  0.00    -0.334 N 
HETATM    5  C   UNL     1     -42.035 -51.715  12.641  1.00  0.00     0.128 C 
HETATM    6  C   UNL     1     -41.797 -52.259  14.053  1.00  0.00     0.027 C 
HETATM    7  C   UNL     1     -40.370 -52.802  14.255  1.00  0.00     0.012 C 
HETATM    8  C   UNL     1     -39.351 -51.742  13.817  1.00  0.00     0.027 C 
HETATM    9  C   UNL     1     -39.624 -51.229  12.407  1.00  0.00     0.128 C 
HETATM   10  H   UNL     1     -43.158 -49.438  12.019  1.00  0.00     0.164 HD
ENDROOT
BRANCH   1  11
HETATM   11  C   UNL     1     -42.718 -47.940  10.641  1.00  0.00     0.130 C 
BRANCH  11  12
HETATM   12  C   UNL     1     -42.807 -46.756  11.602  1.00  0.00     0.077 C 
BRANCH  12  13
HETATM   13  C   UNL     1     -41.667 -45.797  11.452  1.00  0.00     0.018 A 
HETATM   14  N   UNL     1     -40.896 -45.859  10.300  1.00  0.00    -0.357 N 
HETATM   15  C   UNL     1     -39.931 -44.968  10.357  1.00  0.00     0.046 A 
ATOM     16  HN  UNL     1     -41.054 -46.502   9.524  1.00  0.00     0.166 HD
HETATM   17  C   UNL     1     -38.897 -44.777   9.305  1.00  0.00     0.076 C 
HETATM   18  S   UNL     1     -39.907 -43.989  11.770  1.00  0.00    -0.087 SA
HETATM   19  C   UNL     1     -41.278 -44.829  12.359  1.00  0.00     0.076 A 
ENDBRANCH  12  13
ENDBRANCH  11  12
ENDBRANCH   1  11
BRANCH   7  20
HETATM   20  C   UNL     1     -40.136 -54.133  13.529  1.00  0.00     0.168 C 
BRANCH  20  21
HETATM   21  O   UNL     1     -38.746 -54.418  13.451  1.00  0.00    -0.400 OA
HETATM   22  H   UNL     1     -38.289 -53.585  13.240  1.00  0.00     0.209 HD
ENDBRANCH  20  21
ENDBRANCH   7  20
TORSDOF 5
ENDMDL
MODEL 5
REMARK VINA RESULT:      -5.6      2.274      2.347
REMARK  5 active torsions:
REMARK  status: ('A' for Active; 'I' for Inactive)
REMARK    1  A    between atoms: C_5  and  C_6 
REMARK    2  A    between atoms: C_6  and  C_7 
REMARK    3  A    between atoms: C_7  and  N_8 
REMARK       I    between atoms: N_8  and  C_9 
REMARK       I    between atoms: C_9  and  N_11 
REMARK    4  A    between atoms: C_14  and  C_15 
REMARK    5  A    between atoms: C_15  and  O_16 
ROOT
HETATM    1  N   UNL     1     -41.777 -50.887  11.852  1.00  0.00    -0.343 N 
HETATM    2  C   UNL     1     -41.529 -52.168  12.266  1.00  0.00     0.318 C 
HETATM    3  O   UNL     1     -40.433 -52.692  12.073  1.00  0.00    -0.247 OA
HETATM    4  N   UNL     1     -42.571 -52.834  12.887  1.00  0.00    -0.334 N 
HETATM    5  C   UNL     1     -43.961 -52.374  12.979  1.00  0.00     0.128 C 
HETATM    6  C   UNL     1     -44.560 -52.717  14.346  1.00  0.00     0.027 C 
HETATM    7  C   UNL     1     -44.391 -54.201  14.720  1.00  0.00     0.012 C 
HETATM    8  C   UNL     1     -42.919 -54.605  14.567  1.00  0.00     0.027 C 
HETATM    9  C   UNL     1     -42.364 -54.247  13.193  1.00  0.00     0.128 C 
HETATM   10  H   UNL     1     -42.414 -50.343  12.422  1.00  0.00     0.164 HD
ENDROOT
BRANCH   1  11
HETATM   11  C   UNL     1     -40.675 -50.116  11.297  1.00  0.00     0.130 C 
BRANCH  11  12
HETATM   12  C   UNL     1     -39.793 -49.457  12.354  1.00  0.00     0.077 C 
BRANCH  12  13
HETATM   13  C   UNL     1     -39.846 -47.961  12.308  1.00  0.00     0.018 A 
HETATM   14  N   UNL     1     -39.836 -47.336  11.070  1.00  0.00    -0.357 N 
HETATM   15  C   UNL     1     -39.858 -46.030  11.225  1.00  0.00     0.046 A 
ATOM     16  HN  UNL     1     -39.814 -47.818  10.171  1.00  0.00     0.166 HD
HETATM   17  C   UNL     1     -39.825 -45.049  10.109  1.00  0.00     0.076 C 
HETATM   18  S   UNL     1     -39.922 -45.478  12.852  1.00  0.00    -0.087 SA
HETATM   19  C   UNL     1     -39.901 -47.103  13.390  1.00  0.00     0.076 A 
ENDBRANCH  12  13
ENDBRANCH  11  12
ENDBRANCH   1  11
BRANCH   7  20
HETATM   20  C   UNL     1     -45.310 -55.124  13.909  1.00  0.00     0.168 C 
BRANCH  20  21
HETATM   21  O   UNL     1     -46.673 -54.852  14.207  1.00  0.00    -0.400 OA
HETATM   22  H   UNL     1     -47.215 -55.384  13.599  1.00  0.00     0.209 HD
ENDBRANCH  20  21
ENDBRANCH   7  20
TORSDOF 5
ENDMDL
MODEL 6
REMARK VINA RESULT:      -5.5      1.987      2.731
REMARK  5 active torsions:
REMARK  status: ('A' for Active; 'I' for Inactive)
REMARK    1  A    between atoms: C_5  and  C_6 
REMARK    2  A    between atoms: C_6  and  C_7 
REMARK    3  A    between atoms: C_7  and  N_8 
REMARK       I    between atoms: N_8  and  C_9 
REMARK       I    between atoms: C_9  and  N_11 
REMARK    4  A    between atoms: C_14  and  C_15 
REMARK    5  A    between atoms: C_15  and  O_16 
ROOT
HETATM    1  N   UNL     1     -42.156 -50.514  11.965  1.00  0.00    -0.343 N 
HETATM    2  C   UNL     1     -41.845 -51.803  12.306  1.00  0.00     0.318 C 
HETATM    3  O   UNL     1     -40.724 -52.261  12.086  1.00  0.00    -0.247 OA
HETATM    4  N   UNL     1     -42.853 -52.552  12.887  1.00  0.00    -0.334 N 
HETATM    5  C   UNL     1     -44.263 -52.168  13.003  1.00  0.00     0.128 C 
HETATM    6  C   UNL     1     -44.843 -52.616  14.347  1.00  0.00     0.027 C 
HETATM    7  C   UNL     1     -44.600 -54.109  14.638  1.00  0.00     0.012 C 
HETATM    8  C   UNL     1     -43.111 -54.430  14.465  1.00  0.00     0.027 C 
HETATM    9  C   UNL     1     -42.575 -53.969  13.114  1.00  0.00     0.128 C 
HETATM   10  H   UNL     1     -42.818 -50.035  12.563  1.00  0.00     0.164 HD
ENDROOT
BRANCH   1  11
HETATM   11  C   UNL     1     -41.094 -49.660  11.456  1.00  0.00     0.130 C 
BRANCH  11  12
HETATM   12  C   UNL     1     -41.600 -48.431  10.705  1.00  0.00     0.077 C 
BRANCH  12  13
HETATM   13  C   UNL     1     -40.949 -47.162  11.159  1.00  0.00     0.018 A 
HETATM   14  N   UNL     1     -40.208 -47.179  12.332  1.00  0.00    -0.357 N 
HETATM   15  C   UNL     1     -39.739 -45.977  12.585  1.00  0.00     0.046 A 
ATOM     16  HN  UNL     1     -40.050 -48.004  12.912  1.00  0.00     0.166 HD
HETATM   17  C   UNL     1     -38.926 -45.625  13.779  1.00  0.00     0.076 C 
HETATM   18  S   UNL     1     -40.131 -44.769  11.427  1.00  0.00    -0.087 SA
HETATM   19  C   UNL     1     -41.006 -45.933  10.528  1.00  0.00     0.076 A 
ENDBRANCH  12  13
ENDBRANCH  11  12
ENDBRANCH   1  11
BRANCH   7  20
HETATM   20  C   UNL     1     -45.474 -55.028  13.775  1.00  0.00     0.168 C 
BRANCH  20  21
HETATM   21  O   UNL     1     -46.669 -55.367  14.464  1.00  0.00    -0.400 OA
HETATM   22  H   UNL     1     -47.404 -54.914  14.015  1.00  0.00     0.209 HD
ENDBRANCH  20  21
ENDBRANCH   7  20
TORSDOF 5
ENDMDL
MODEL 7
REMARK VINA RESULT:      -5.3      3.538      4.710
REMARK  5 active torsions:
REMARK  status: ('A' for Active; 'I' for Inactive)
REMARK    1  A    between atoms: C_5  and  C_6 
REMARK    2  A    between atoms: C_6  and  C_7 
REMARK    3  A    between atoms: C_7  and  N_8 
REMARK       I    between atoms: N_8  and  C_9 
REMARK       I    between atoms: C_9  and  N_11 
REMARK    4  A    between atoms: C_14  and  C_15 
REMARK    5  A    between atoms: C_15  and  O_16 
ROOT
HETATM    1  N   UNL     1     -42.265 -53.742  13.856  1.00  0.00    -0.343 N 
HETATM    2  C   UNL     1     -43.029 -52.680  13.449  1.00  0.00     0.318 C 
HETATM    3  O   UNL     1     -42.642 -51.933  12.551  1.00  0.00    -0.247 OA
HETATM    4  N   UNL     1     -44.231 -52.490  14.108  1.00  0.00    -0.334 N 
HETATM    5  C   UNL     1     -44.679 -53.194  15.313  1.00  0.00     0.128 C 
HETATM    6  C   UNL     1     -46.180 -53.493  15.244  1.00  0.00     0.027 C 
HETATM    7  C   UNL     1     -47.026 -52.246  14.925  1.00  0.00     0.012 C 
HETATM    8  C   UNL     1     -46.471 -51.556  13.673  1.00  0.00     0.027 C 
HETATM    9  C   UNL     1     -44.976 -51.276  13.785  1.00  0.00     0.128 C 
HETATM   10  H   UNL     1     -42.765 -54.563  14.175  1.00  0.00     0.164 HD
ENDROOT
BRANCH   1  11
HETATM   11  C   UNL     1     -41.050 -54.041  13.115  1.00  0.00     0.130 C 
BRANCH  11  12
HETATM   12  C   UNL     1     -39.770 -53.788  13.906  1.00  0.00     0.077 C 
BRANCH  12  13
HETATM   13  C   UNL     1     -39.338 -52.355  13.871  1.00  0.00     0.018 A 
HETATM   14  N   UNL     1     -39.623 -51.603  12.740  1.00  0.00    -0.357 N 
HETATM   15  C   UNL     1     -39.147 -50.385  12.878  1.00  0.00     0.046 A 
ATOM     16  HN  UNL     1     -40.128 -51.945  11.922  1.00  0.00     0.166 HD
HETATM   17  C   UNL     1     -39.245 -49.321  11.844  1.00  0.00     0.076 C 
HETATM   18  S   UNL     1     -38.360 -50.061  14.371  1.00  0.00    -0.087 SA
HETATM   19  C   UNL     1     -38.662 -51.672  14.866  1.00  0.00     0.076 A 
ENDBRANCH  12  13
ENDBRANCH  11  12
ENDBRANCH   1  11
BRANCH   7  20
HETATM   20  C   UNL     1     -47.112 -51.273  16.108  1.00  0.00     0.168 C 
BRANCH  20  21
HETATM   21  O   UNL     1     -48.211 -51.607  16.946  1.00  0.00    -0.400 OA
HETATM   22  H   UNL     1     -48.593 -50.774  17.271  1.00  0.00     0.209 HD
ENDBRANCH  20  21
ENDBRANCH   7  20
TORSDOF 5
ENDMDL
MODEL 8
REMARK VINA RESULT:      -5.2      3.870      4.350
REMARK  5 active torsions:
REMARK  status: ('A' for Active; 'I' for Inactive)
REMARK    1  A    between atoms: C_5  and  C_6 
REMARK    2  A    between atoms: C_6  and  C_7 
REMARK    3  A    between atoms: C_7  and  N_8 
REMARK       I    between atoms: N_8  and  C_9 
REMARK       I    between atoms: C_9  and  N_11 
REMARK    4  A    between atoms: C_14  and  C_15 
REMARK    5  A    between atoms: C_15  and  O_16 
ROOT
HETATM    1  N   UNL     1     -40.467 -52.677  15.295  1.00  0.00    -0.343 N 
HETATM    2  C   UNL     1     -40.946 -52.913  14.035  1.00  0.00     0.318 C 
HETATM    3  O   UNL     1     -40.178 -53.063  13.085  1.00  0.00    -0.247 OA
HETATM    4  N   UNL     1     -42.322 -52.954  13.890  1.00  0.00    -0.334 N 
HETATM    5  C   UNL     1     -43.311 -52.588  14.908  1.00  0.00     0.128 C 
HETATM    6  C   UNL     1     -44.516 -53.533  14.864  1.00  0.00     0.027 C 
HETATM    7  C   UNL     1     -45.123 -53.667  13.455  1.00  0.00     0.012 C 
HETATM    8  C   UNL     1     -44.018 -54.019  12.451  1.00  0.00     0.027 C 
HETATM    9  C   UNL     1     -42.840 -53.053  12.528  1.00  0.00     0.128 C 
HETATM   10  H   UNL     1     -41.013 -53.047  16.064  1.00  0.00     0.164 HD
ENDROOT
BRANCH   1  11
HETATM   11  C   UNL     1     -39.030 -52.738  15.509  1.00  0.00     0.130 C 
BRANCH  11  12
HETATM   12  C   UNL     1     -38.405 -51.394  15.875  1.00  0.00     0.077 C 
BRANCH  12  13
HETATM   13  C   UNL     1     -38.396 -50.425  14.734  1.00  0.00     0.018 A 
HETATM   14  N   UNL     1     -37.896 -50.847  13.510  1.00  0.00    -0.357 N 
HETATM   15  C   UNL     1     -37.941 -49.861  12.642  1.00  0.00     0.046 A 
ATOM     16  HN  UNL     1     -37.545 -51.785  13.313  1.00  0.00     0.166 HD
HETATM   17  C   UNL     1     -37.457 -49.951  11.239  1.00  0.00     0.076 C 
HETATM   18  S   UNL     1     -38.606 -48.387  13.227  1.00  0.00    -0.087 SA
HETATM   19  C   UNL     1     -38.837 -49.115  14.759  1.00  0.00     0.076 A 
ENDBRANCH  12  13
ENDBRANCH  11  12
ENDBRANCH   1  11
BRANCH   7  20
HETATM   20  C   UNL     1     -45.891 -52.411  13.021  1.00  0.00     0.168 C 
BRANCH  20  21
HETATM   21  O   UNL     1     -46.382 -52.564  11.696  1.00  0.00    -0.400 OA
HETATM   22  H   UNL     1     -46.184 -53.474  11.415  1.00  0.00     0.209 HD
ENDBRANCH  20  21
ENDBRANCH   7  20
TORSDOF 5
ENDMDL
MODEL 9
REMARK VINA RESULT:      -5.2      3.129      3.578
REMARK  5 active torsions:
REMARK  status: ('A' for Active; 'I' for Inactive)
REMARK    1  A    between atoms: C_5  and  C_6 
REMARK    2  A    between atoms: C_6  and  C_7 
REMARK    3  A    between atoms: C_7  and  N_8 
REMARK       I    between atoms: N_8  and  C_9 
REMARK       I    between atoms: C_9  and  N_11 
REMARK    4  A    between atoms: C_14  and  C_15 
REMARK    5  A    between atoms: C_15  and  O_16 
ROOT
HETATM    1  N   UNL     1     -43.043 -49.006  13.124  1.00  0.00    -0.343 N 
HETATM    2  C   UNL     1     -43.455 -49.478  14.342  1.00  0.00     0.318 C 
HETATM    3  O   UNL     1     -42.993 -49.018  15.386  1.00  0.00    -0.247 OA
HETATM    4  N   UNL     1     -44.390 -50.498  14.329  1.00  0.00    -0.334 N 
HETATM    5  C   UNL     1     -44.843 -51.244  13.151  1.00  0.00     0.128 C 
HETATM    6  C   UNL     1     -46.344 -51.537  13.234  1.00  0.00     0.027 C 
HETATM    7  C   UNL     1     -46.754 -52.201  14.562  1.00  0.00     0.012 C 
HETATM    8  C   UNL     1     -46.215 -51.375  15.737  1.00  0.00     0.027 C 
HETATM    9  C   UNL     1     -44.719 -51.109  15.615  1.00  0.00     0.128 C 
HETATM   10  H   UNL     1     -43.732 -49.007  12.382  1.00  0.00     0.164 HD
ENDROOT
BRANCH   1  11
HETATM   11  C   UNL     1     -42.147 -47.860  13.096  1.00  0.00     0.130 C 
BRANCH  11  12
HETATM   12  C   UNL     1     -41.171 -47.872  11.923  1.00  0.00     0.077 C 
BRANCH  12  13
HETATM   13  C   UNL     1     -40.801 -46.498  11.458  1.00  0.00     0.018 A 
HETATM   14  N   UNL     1     -39.911 -46.373  10.402  1.00  0.00    -0.357 N 
HETATM   15  C   UNL     1     -39.684 -45.102  10.153  1.00  0.00     0.046 A 
ATOM     16  HN  UNL     1     -39.493 -47.152   9.892  1.00  0.00     0.166 HD
HETATM   17  C   UNL     1     -38.756 -44.601   9.105  1.00  0.00     0.076 C 
HETATM   18  S   UNL     1     -40.540 -43.988  11.143  1.00  0.00    -0.087 SA
HETATM   19  C   UNL     1     -41.255 -45.300  11.979  1.00  0.00     0.076 A 
ENDBRANCH  12  13
ENDBRANCH  11  12
ENDBRANCH   1  11
BRANCH   7  20
HETATM   20  C   UNL     1     -46.302 -53.664  14.654  1.00  0.00     0.168 C 
BRANCH  20  21
HETATM   21  O   UNL     1     -46.208 -54.237  13.356  1.00  0.00    -0.400 OA
HETATM   22  H   UNL     1     -46.953 -53.895  12.833  1.00  0.00     0.209 HD
ENDBRANCH  20  21
ENDBRANCH   7  20
TORSDOF 5
ENDMDL
