MODEL 1
REMARK VINA RESULT:      -5.5      0.000      0.000
REMARK  5 active torsions:
REMARK  status: ('A' for Active; 'I' for Inactive)
REMARK    1  A    between atoms: S_2  and  N_4 
REMARK    2  A    between atoms: S_2  and  N_14 
REMARK    3  A    between atoms: N_4  and  C_5 
REMARK    4  A    between atoms: C_5  and  C_6 
REMARK    5  A    between atoms: C_6  and  C_7 
ROOT
HETATM    1  N   UNL     1     -43.302 -55.045  14.559  1.00  0.00    -0.206 NA
HETATM    2  H   UNL     1     -43.038 -55.843  13.975  1.00  0.00     0.140 HD
ENDROOT
BRANCH   1   3
HETATM    3  S   UNL     1     -44.714 -54.423  13.907  1.00  0.00     0.281 S 
HETATM    4  O   UNL     1     -44.608 -54.434  12.471  1.00  0.00    -0.194 OA
HETATM    5  O   UNL     1     -45.817 -55.052  14.587  1.00  0.00    -0.194 OA
BRANCH   3   6
HETATM    6  N   UNL     1     -44.618 -52.825  14.419  1.00  0.00    -0.194 NA
HETATM    7  C   UNL     1     -45.488 -52.545  15.617  1.00  0.00     0.134 C 
HETATM    8  C   UNL     1     -46.945 -52.262  15.210  1.00  0.00     0.183 C 
HETATM    9  O   UNL     1     -47.026 -51.190  14.259  1.00  0.00    -0.389 OA
HETATM   10  C   UNL     1     -46.281 -51.508  13.075  1.00  0.00     0.183 C 
HETATM   11  C   UNL     1     -44.808 -51.738  13.408  1.00  0.00     0.134 C 
ENDBRANCH   3   6
ENDBRANCH   1   3
BRANCH   1  12
HETATM   12  C   UNL     1     -42.151 -54.108  14.667  1.00  0.00     0.110 C 
BRANCH  12  13
HETATM   13  C   UNL     1     -41.118 -54.266  13.551  1.00  0.00     0.055 C 
BRANCH  13  14
HETATM   14  C   UNL     1     -40.698 -52.938  12.986  1.00  0.00    -0.042 A 
HETATM   15  C   UNL     1     -39.658 -52.210  13.571  1.00  0.00     0.010 A 
HETATM   16  C   UNL     1     -39.294 -50.979  13.037  1.00  0.00     0.018 A 
HETATM   17  C   UNL     1     -39.993 -50.515  11.936  1.00  0.00     0.087 A 
HETATM   18  N   UNL     1     -41.007 -51.187  11.348  1.00  0.00    -0.375 N 
HETATM   19  C   UNL     1     -41.333 -52.382  11.882  1.00  0.00     0.094 A 
ATOM     20  HN  UNL     1     -41.501 -50.810  10.539  1.00  0.00     0.164 HD
ENDBRANCH  13  14
ENDBRANCH  12  13
ENDBRANCH   1  12
TORSDOF 5
ENDMDL
MODEL 2
REMARK VINA RESULT:      -5.4      1.996      2.855
REMARK  5 active torsions:
REMARK  status: ('A' for Active; 'I' for Inactive)
REMARK    1  A    between atoms: S_2  and  N_4 
REMARK    2  A    between atoms: S_2  and  N_14 
REMARK    3  A    between atoms: N_4  and  C_5 
REMARK    4  A    between atoms: C_5  and  C_6 
REMARK    5  A    between atoms: C_6  and  C_7 
ROOT
HETATM    1  N   UNL     1     -43.063 -52.656  12.110  1.00  0.00    -0.206 NA
HETATM    2  H   UNL     1     -43.300 -52.672  11.114  1.00  0.00     0.140 HD
ENDROOT
BRANCH   1   3
HETATM    3  S   UNL     1     -44.512 -52.754  12.946  1.00  0.00     0.281 S 
HETATM    4  O   UNL     1     -44.577 -51.671  13.893  1.00  0.00    -0.194 OA
HETATM    5  O   UNL     1     -45.555 -52.971  11.976  1.00  0.00    -0.194 OA
BRANCH   3   6
HETATM    6  N   UNL     1     -44.282 -54.180  13.805  1.00  0.00    -0.194 NA
HETATM    7  C   UNL     1     -45.508 -55.055  13.818  1.00  0.00     0.134 C 
HETATM    8  C   UNL     1     -46.503 -54.629  14.912  1.00  0.00     0.183 C 
HETATM    9  O   UNL     1     -45.882 -54.602  16.205  1.00  0.00    -0.389 OA
HETATM   10  C   UNL     1     -44.778 -53.686  16.218  1.00  0.00     0.183 C 
HETATM   11  C   UNL     1     -43.724 -54.096  15.191  1.00  0.00     0.134 C 
ENDBRANCH   3   6
ENDBRANCH   1   3
BRANCH   1  12
HETATM   12  C   UNL     1     -42.209 -51.472  12.398  1.00  0.00     0.110 C 
BRANCH  12  13
HETATM   13  C   UNL     1     -40.972 -51.791  13.239  1.00  0.00     0.055 C 
BRANCH  13  14
HETATM   14  C   UNL     1     -39.724 -51.200  12.644  1.00  0.00    -0.042 A 
HETATM   15  C   UNL     1     -38.479 -51.415  13.243  1.00  0.00     0.010 A 
HETATM   16  C   UNL     1     -37.340 -50.851  12.681  1.00  0.00     0.018 A 
HETATM   17  C   UNL     1     -37.489 -50.081  11.540  1.00  0.00     0.087 A 
HETATM   18  N   UNL     1     -38.676 -49.847  10.938  1.00  0.00    -0.375 N 
HETATM   19  C   UNL     1     -39.764 -50.414  11.500  1.00  0.00     0.094 A 
ATOM     20  HN  UNL     1     -38.746 -49.271  10.100  1.00  0.00     0.164 HD
ENDBRANCH  13  14
ENDBRANCH  12  13
ENDBRANCH   1  12
TORSDOF 5
ENDMDL
MODEL 3
REMARK VINA RESULT:      -5.2      3.734      4.937
REMARK  5 active torsions:
REMARK  status: ('A' for Active; 'I' for Inactive)
REMARK    1  A    between atoms: S_2  and  N_4 
REMARK    2  A    between atoms: S_2  and  N_14 
REMARK    3  A    between atoms: N_4  and  C_5 
REMARK    4  A    between atoms: C_5  and  C_6 
REMARK    5  A    between atoms: C_6  and  C_7 
ROOT
HETATM    1  N   UNL     1     -43.675 -49.922  12.471  1.00  0.00    -0.206 NA
HETATM    2  H   UNL     1     -44.566 -49.573  12.109  1.00  0.00     0.140 HD
ENDROOT
BRANCH   1   3
HETATM    3  S   UNL     1     -44.045 -50.928  13.759  1.00  0.00     0.281 S 
HETATM    4  O   UNL     1     -43.169 -52.071  13.724  1.00  0.00    -0.194 OA
HETATM    5  O   UNL     1     -44.159 -50.101  14.933  1.00  0.00    -0.194 OA
BRANCH   3   6
HETATM    6  N   UNL     1     -45.584 -51.442  13.322  1.00  0.00    -0.194 NA
HETATM    7  C   UNL     1     -46.561 -51.392  14.468  1.00  0.00     0.134 C 
HETATM    8  C   UNL     1     -46.463 -52.644  15.357  1.00  0.00     0.183 C 
HETATM    9  O   UNL     1     -46.635 -53.846  14.593  1.00  0.00    -0.389 OA
HETATM   10  C   UNL     1     -45.636 -53.941  13.569  1.00  0.00     0.183 C 
HETATM   11  C   UNL     1     -45.725 -52.753  12.614  1.00  0.00     0.134 C 
ENDBRANCH   3   6
ENDBRANCH   1   3
BRANCH   1  12
HETATM   12  C   UNL     1     -42.774 -48.774  12.764  1.00  0.00     0.110 C 
BRANCH  12  13
HETATM   13  C   UNL     1     -43.234 -47.454  12.144  1.00  0.00     0.055 C 
BRANCH  13  14
HETATM   14  C   UNL     1     -43.465 -47.581  10.665  1.00  0.00    -0.042 A 
HETATM   15  C   UNL     1     -44.745 -47.420  10.127  1.00  0.00     0.010 A 
HETATM   16  C   UNL     1     -44.937 -47.552   8.756  1.00  0.00     0.018 A 
HETATM   17  C   UNL     1     -43.838 -47.851   7.971  1.00  0.00     0.087 A 
HETATM   18  N   UNL     1     -42.588 -48.020   8.456  1.00  0.00    -0.375 N 
HETATM   19  C   UNL     1     -42.430 -47.878   9.788  1.00  0.00     0.094 A 
ATOM     20  HN  UNL     1     -41.802 -48.244   7.845  1.00  0.00     0.164 HD
ENDBRANCH  13  14
ENDBRANCH  12  13
ENDBRANCH   1  12
TORSDOF 5
ENDMDL
MODEL 4
REMARK VINA RESULT:      -5.1      2.225      5.931
REMARK  5 active torsions:
REMARK  status: ('A' for Active; 'I' for Inactive)
REMARK    1  A    between atoms: S_2  and  N_4 
REMARK    2  A    between atoms: S_2  and  N_14 
REMARK    3  A    between atoms: N_4  and  C_5 
REMARK    4  A    between atoms: C_5  and  C_6 
REMARK    5  A    between atoms: C_6  and  C_7 
ROOT
HETATM    1  N   UNL     1     -45.751 -53.950  15.226  1.00  0.00    -0.206 NA
HETATM    2  H   UNL     1     -45.313 -53.328  15.911  1.00  0.00     0.140 HD
ENDROOT
BRANCH   1   3
HETATM    3  S   UNL     1     -44.522 -54.498  14.228  1.00  0.00     0.281 S 
HETATM    4  O   UNL     1     -44.055 -55.769  14.719  1.00  0.00    -0.194 OA
HETATM    5  O   UNL     1     -44.965 -54.333  12.867  1.00  0.00    -0.194 OA
BRANCH   3   6
HETATM    6  N   UNL     1     -43.331 -53.354  14.539  1.00  0.00    -0.194 NA
HETATM    7  C   UNL     1     -43.327 -52.231  13.535  1.00  0.00     0.134 C 
HETATM    8  C   UNL     1     -42.545 -52.606  12.263  1.00  0.00     0.183 C 
HETATM    9  O   UNL     1     -41.207 -53.020  12.571  1.00  0.00    -0.389 OA
HETATM   10  C   UNL     1     -41.218 -54.157  13.444  1.00  0.00     0.183 C 
HETATM   11  C   UNL     1     -41.927 -53.825  14.756  1.00  0.00     0.134 C 
ENDBRANCH   3   6
ENDBRANCH   1   3
BRANCH   1  12
HETATM   12  C   UNL     1     -46.879 -53.241  14.562  1.00  0.00     0.110 C 
BRANCH  12  13
HETATM   13  C   UNL     1     -46.748 -51.718  14.579  1.00  0.00     0.055 C 
BRANCH  13  14
HETATM   14  C   UNL     1     -46.769 -51.171  15.978  1.00  0.00    -0.042 A 
HETATM   15  C   UNL     1     -47.945 -51.189  16.733  1.00  0.00     0.010 A 
HETATM   16  C   UNL     1     -47.944 -50.669  18.022  1.00  0.00     0.018 A 
HETATM   17  C   UNL     1     -46.762 -50.138  18.508  1.00  0.00     0.087 A 
HETATM   18  N   UNL     1     -45.608 -50.097  17.806  1.00  0.00    -0.375 N 
HETATM   19  C   UNL     1     -45.637 -50.617  16.561  1.00  0.00     0.094 A 
ATOM     20  HN  UNL     1     -44.757 -49.693  18.198  1.00  0.00     0.164 HD
ENDBRANCH  13  14
ENDBRANCH  12  13
ENDBRANCH   1  12
TORSDOF 5
ENDMDL
MODEL 5
REMARK VINA RESULT:      -5.1      2.443      3.408
REMARK  5 active torsions:
REMARK  status: ('A' for Active; 'I' for Inactive)
REMARK    1  A    between atoms: S_2  and  N_4 
REMARK    2  A    between atoms: S_2  and  N_14 
REMARK    3  A    between atoms: N_4  and  C_5 
REMARK    4  A    between atoms: C_5  and  C_6 
REMARK    5  A    between atoms: C_6  and  C_7 
ROOT
HETATM    1  N   UNL     1     -43.068 -52.277  12.272  1.00  0.00    -0.206 NA
HETATM    2  H   UNL     1     -43.719 -51.499  12.415  1.00  0.00     0.140 HD
ENDROOT
BRANCH   1   3
HETATM    3  S   UNL     1     -43.690 -53.579  13.123  1.00  0.00     0.281 S 
HETATM    4  O   UNL     1     -44.560 -54.331  12.256  1.00  0.00    -0.194 OA
HETATM    5  O   UNL     1     -42.592 -54.205  13.817  1.00  0.00    -0.194 OA
BRANCH   3   6
HETATM    6  N   UNL     1     -44.647 -52.786  14.254  1.00  0.00    -0.194 NA
HETATM    7  C   UNL     1     -44.089 -52.872  15.651  1.00  0.00     0.134 C 
HETATM    8  C   UNL     1     -44.478 -54.192  16.341  1.00  0.00     0.183 C 
HETATM    9  O   UNL     1     -45.900 -54.383  16.346  1.00  0.00    -0.389 OA
HETATM   10  C   UNL     1     -46.413 -54.406  15.007  1.00  0.00     0.183 C 
HETATM   11  C   UNL     1     -46.111 -53.091  14.290  1.00  0.00     0.134 C 
ENDBRANCH   3   6
ENDBRANCH   1   3
BRANCH   1  12
HETATM   12  C   UNL     1     -41.690 -51.845  12.633  1.00  0.00     0.110 C 
BRANCH  12  13
HETATM   13  C   UNL     1     -41.608 -50.406  13.143  1.00  0.00     0.055 C 
BRANCH  13  14
HETATM   14  C   UNL     1     -41.958 -49.412  12.072  1.00  0.00    -0.042 A 
HETATM   15  C   UNL     1     -43.112 -48.629  12.176  1.00  0.00     0.010 A 
HETATM   16  C   UNL     1     -43.421 -47.722  11.168  1.00  0.00     0.018 A 
HETATM   17  C   UNL     1     -42.565 -47.638  10.084  1.00  0.00     0.087 A 
HETATM   18  N   UNL     1     -41.445 -48.381   9.947  1.00  0.00    -0.375 N 
HETATM   19  C   UNL     1     -41.166 -49.247  10.944  1.00  0.00     0.094 A 
ATOM     20  HN  UNL     1     -40.841 -48.293   9.130  1.00  0.00     0.164 HD
ENDBRANCH  13  14
ENDBRANCH  12  13
ENDBRANCH   1  12
TORSDOF 5
ENDMDL
MODEL 6
REMARK VINA RESULT:      -5.0      2.948      5.208
REMARK  5 active torsions:
REMARK  status: ('A' for Active; 'I' for Inactive)
REMARK    1  A    between atoms: S_2  and  N_4 
REMARK    2  A    between atoms: S_2  and  N_14 
REMARK    3  A    between atoms: N_4  and  C_5 
REMARK    4  A    between atoms: C_5  and  C_6 
REMARK    5  A    between atoms: C_6  and  C_7 
ROOT
HETATM    1  N   UNL     1     -41.486 -54.234  13.654  1.00  0.00    -0.206 NA
HETATM    2  H   UNL     1     -41.191 -55.201  13.492  1.00  0.00     0.140 HD
ENDROOT
BRANCH   1   3
HETATM    3  S   UNL     1     -40.084 -53.333  13.834  1.00  0.00     0.281 S 
HETATM    4  O   UNL     1     -40.213 -52.500  15.001  1.00  0.00    -0.194 OA
HETATM    5  O   UNL     1     -38.970 -54.231  13.667  1.00  0.00    -0.194 OA
BRANCH   3   6
HETATM    6  N   UNL     1     -40.173 -52.343  12.479  1.00  0.00    -0.194 NA
HETATM    7  C   UNL     1     -39.354 -51.087  12.622  1.00  0.00     0.134 C 
HETATM    8  C   UNL     1     -40.115 -49.994  13.394  1.00  0.00     0.183 C 
HETATM    9  O   UNL     1     -41.383 -49.709  12.788  1.00  0.00    -0.389 OA
HETATM   10  C   UNL     1     -42.201 -50.886  12.750  1.00  0.00     0.183 C 
HETATM   11  C   UNL     1     -41.524 -51.990  11.940  1.00  0.00     0.134 C 
ENDBRANCH   3   6
ENDBRANCH   1   3
BRANCH   1  12
HETATM   12  C   UNL     1     -42.451 -54.193  14.786  1.00  0.00     0.110 C 
BRANCH  12  13
HETATM   13  C   UNL     1     -43.856 -54.673  14.419  1.00  0.00     0.055 C 
BRANCH  13  14
HETATM   14  C   UNL     1     -44.717 -53.548  13.916  1.00  0.00    -0.042 A 
HETATM   15  C   UNL     1     -45.330 -52.665  14.810  1.00  0.00     0.010 A 
HETATM   16  C   UNL     1     -46.129 -51.638  14.322  1.00  0.00     0.018 A 
HETATM   17  C   UNL     1     -46.295 -51.536  12.952  1.00  0.00     0.087 A 
HETATM   18  N   UNL     1     -45.724 -52.375  12.059  1.00  0.00    -0.375 N 
HETATM   19  C   UNL     1     -44.946 -53.357  12.560  1.00  0.00     0.094 A 
ATOM     20  HN  UNL     1     -45.873 -52.270  11.055  1.00  0.00     0.164 HD
ENDBRANCH  13  14
ENDBRANCH  12  13
ENDBRANCH   1  12
TORSDOF 5
ENDMDL
MODEL 7
REMARK VINA RESULT:      -5.0      3.159      5.983
REMARK  5 active torsions:
REMARK  status: ('A' for Active; 'I' for Inactive)
REMARK    1  A    between atoms: S_2  and  N_4 
REMARK    2  A    between atoms: S_2  and  N_14 
REMARK    3  A    between atoms: N_4  and  C_5 
REMARK    4  A    between atoms: C_5  and  C_6 
REMARK    5  A    between atoms: C_6  and  C_7 
ROOT
HETATM    1  N   UNL     1     -41.324 -53.363  14.448  1.00  0.00    -0.206 NA
HETATM    2  H   UNL     1     -41.714 -52.462  14.738  1.00  0.00     0.140 HD
ENDROOT
BRANCH   1   3
HETATM    3  S   UNL     1     -40.067 -53.021  13.394  1.00  0.00     0.281 S 
HETATM    4  O   UNL     1     -38.958 -53.888  13.695  1.00  0.00    -0.194 OA
HETATM    5  O   UNL     1     -40.624 -52.943  12.068  1.00  0.00    -0.194 OA
BRANCH   3   6
HETATM    6  N   UNL     1     -39.658 -51.468  13.888  1.00  0.00    -0.194 NA
HETATM    7  C   UNL     1     -40.288 -50.400  13.032  1.00  0.00     0.134 C 
HETATM    8  C   UNL     1     -39.472 -50.140  11.752  1.00  0.00     0.183 C 
HETATM    9  O   UNL     1     -38.109 -49.813  12.056  1.00  0.00    -0.389 OA
HETATM   10  C   UNL     1     -37.482 -50.879  12.781  1.00  0.00     0.183 C 
HETATM   11  C   UNL     1     -38.213 -51.142  14.096  1.00  0.00     0.134 C 
ENDBRANCH   3   6
ENDBRANCH   1   3
BRANCH   1  12
HETATM   12  C   UNL     1     -42.414 -54.229  13.921  1.00  0.00     0.110 C 
BRANCH  12  13
HETATM   13  C   UNL     1     -43.723 -54.121  14.704  1.00  0.00     0.055 C 
BRANCH  13  14
HETATM   14  C   UNL     1     -44.707 -53.209  14.026  1.00  0.00    -0.042 A 
HETATM   15  C   UNL     1     -45.563 -52.399  14.777  1.00  0.00     0.010 A 
HETATM   16  C   UNL     1     -46.471 -51.570  14.129  1.00  0.00     0.018 A 
HETATM   17  C   UNL     1     -46.497 -51.589  12.745  1.00  0.00     0.087 A 
HETATM   18  N   UNL     1     -45.689 -52.362  11.986  1.00  0.00    -0.375 N 
HETATM   19  C   UNL     1     -44.812 -53.150  12.642  1.00  0.00     0.094 A 
ATOM     20  HN  UNL     1     -45.740 -52.352  10.968  1.00  0.00     0.164 HD
ENDBRANCH  13  14
ENDBRANCH  12  13
ENDBRANCH   1  12
TORSDOF 5
ENDMDL
MODEL 8
REMARK VINA RESULT:      -5.0      5.225      7.018
REMARK  5 active torsions:
REMARK  status: ('A' for Active; 'I' for Inactive)
REMARK    1  A    between atoms: S_2  and  N_4 
REMARK    2  A    between atoms: S_2  and  N_14 
REMARK    3  A    between atoms: N_4  and  C_5 
REMARK    4  A    between atoms: C_5  and  C_6 
REMARK    5  A    between atoms: C_6  and  C_7 
ROOT
HETATM    1  N   UNL     1     -39.452 -51.306  11.747  1.00  0.00    -0.206 NA
HETATM    2  H   UNL     1     -39.157 -52.076  11.140  1.00  0.00     0.140 HD
ENDROOT
BRANCH   1   3
HETATM    3  S   UNL     1     -38.056 -50.675  12.426  1.00  0.00     0.281 S 
HETATM    4  O   UNL     1     -37.121 -51.747  12.650  1.00  0.00    -0.194 OA
HETATM    5  O   UNL     1     -37.695 -49.508  11.662  1.00  0.00    -0.194 OA
BRANCH   3   6
HETATM    6  N   UNL     1     -38.634 -50.171  13.921  1.00  0.00    -0.194 NA
HETATM    7  C   UNL     1     -38.768 -48.674  14.018  1.00  0.00     0.134 C 
HETATM    8  C   UNL     1     -37.430 -48.004  14.380  1.00  0.00     0.183 C 
HETATM    9  O   UNL     1     -36.881 -48.547  15.589  1.00  0.00    -0.389 OA
HETATM   10  C   UNL     1     -36.656 -49.957  15.454  1.00  0.00     0.183 C 
HETATM   11  C   UNL     1     -37.965 -50.687  15.156  1.00  0.00     0.134 C 
ENDBRANCH   3   6
ENDBRANCH   1   3
BRANCH   1  12
HETATM   12  C   UNL     1     -40.490 -51.792  12.696  1.00  0.00     0.110 C 
BRANCH  12  13
HETATM   13  C   UNL     1     -40.801 -53.283  12.562  1.00  0.00     0.055 C 
BRANCH  13  14
HETATM   14  C   UNL     1     -40.385 -54.053  13.784  1.00  0.00    -0.042 A 
HETATM   15  C   UNL     1     -41.316 -54.370  14.778  1.00  0.00     0.010 A 
HETATM   16  C   UNL     1     -40.907 -55.074  15.904  1.00  0.00     0.018 A 
HETATM   17  C   UNL     1     -39.573 -55.431  16.000  1.00  0.00     0.087 A 
HETATM   18  N   UNL     1     -38.644 -55.137  15.063  1.00  0.00    -0.375 N 
HETATM   19  C   UNL     1     -39.072 -54.460  13.977  1.00  0.00     0.094 A 
ATOM     20  HN  UNL     1     -37.668 -55.413  15.171  1.00  0.00     0.164 HD
ENDBRANCH  13  14
ENDBRANCH  12  13
ENDBRANCH   1  12
TORSDOF 5
ENDMDL
MODEL 9
REMARK VINA RESULT:      -5.0      2.411      6.125
REMARK  5 active torsions:
REMARK  status: ('A' for Active; 'I' for Inactive)
REMARK    1  A    between atoms: S_2  and  N_4 
REMARK    2  A    between atoms: S_2  and  N_14 
REMARK    3  A    between atoms: N_4  and  C_5 
REMARK    4  A    between atoms: C_5  and  C_6 
REMARK    5  A    between atoms: C_6  and  C_7 
ROOT
HETATM    1  N   UNL     1     -43.899 -52.190  12.528  1.00  0.00    -0.206 NA
HETATM    2  H   UNL     1     -43.469 -52.167  11.599  1.00  0.00     0.140 HD
ENDROOT
BRANCH   1   3
HETATM    3  S   UNL     1     -42.675 -52.560  13.610  1.00  0.00     0.281 S 
HETATM    4  O   UNL     1     -42.365 -51.384  14.382  1.00  0.00    -0.194 OA
HETATM    5  O   UNL     1     -43.021 -53.807  14.243  1.00  0.00    -0.194 OA
BRANCH   3   6
HETATM    6  N   UNL     1     -41.397 -52.838  12.555  1.00  0.00    -0.194 NA
HETATM    7  C   UNL     1     -40.720 -54.162  12.798  1.00  0.00     0.134 C 
HETATM    8  C   UNL     1     -39.682 -54.072  13.931  1.00  0.00     0.183 C 
HETATM    9  O   UNL     1     -38.715 -53.043  13.678  1.00  0.00    -0.389 OA
HETATM   10  C   UNL     1     -39.356 -51.766  13.553  1.00  0.00     0.183 C 
HETATM   11  C   UNL     1     -40.356 -51.774  12.398  1.00  0.00     0.134 C 
ENDBRANCH   3   6
ENDBRANCH   1   3
BRANCH   1  12
HETATM   12  C   UNL     1     -45.070 -53.110  12.510  1.00  0.00     0.110 C 
BRANCH  12  13
HETATM   13  C   UNL     1     -46.375 -52.458  12.969  1.00  0.00     0.055 C 
BRANCH  13  14
HETATM   14  C   UNL     1     -46.486 -52.424  14.467  1.00  0.00    -0.042 A 
HETATM   15  C   UNL     1     -46.957 -51.282  15.121  1.00  0.00     0.010 A 
HETATM   16  C   UNL     1     -47.043 -51.270  16.508  1.00  0.00     0.018 A 
HETATM   17  C   UNL     1     -46.644 -52.403  17.195  1.00  0.00     0.087 A 
HETATM   18  N   UNL     1     -46.177 -53.522  16.598  1.00  0.00    -0.375 N 
HETATM   19  C   UNL     1     -46.113 -53.508  15.250  1.00  0.00     0.094 A 
ATOM     20  HN  UNL     1     -45.888 -54.337  17.139  1.00  0.00     0.164 HD
ENDBRANCH  13  14
ENDBRANCH  12  13
ENDBRANCH   1  12
TORSDOF 5
ENDMDL
