MODEL 1
REMARK VINA RESULT:      -5.8      0.000      0.000
REMARK  1 active torsions:
REMARK  status: ('A' for Active; 'I' for Inactive)
REMARK       I    between atoms: N_8  and  C_9 
REMARK       I    between atoms: C_9  and  N_11 
REMARK    1  A    between atoms: N_11  and  C_12 
ROOT
HETATM    1  C   UNL     1     -43.487 -46.284   8.679  1.00  0.00     0.078 C 
HETATM    2  C   UNL     1     -43.270 -47.219   9.808  1.00  0.00     0.066 A 
HETATM    3  N   UNL     1     -44.243 -47.821  10.457  1.00  0.00    -0.296 N 
ATOM      4  HN  UNL     1     -45.234 -47.666  10.273  1.00  0.00     0.187 HD
HETATM    5  N   UNL     1     -43.766 -48.680  11.409  1.00  0.00    -0.279 N 
ATOM      6  HN  UNL     1     -44.361 -49.248  12.013  1.00  0.00     0.189 HD
HETATM    7  C   UNL     1     -42.452 -48.690  11.455  1.00  0.00     0.169 A 
HETATM    8  N   UNL     1     -41.654 -49.474  12.239  1.00  0.00    -0.288 N 
HETATM    9  C   UNL     1     -42.106 -50.535  12.968  1.00  0.00     0.322 C 
HETATM   10  O   UNL     1     -41.306 -51.223  13.600  1.00  0.00    -0.247 OA
HETATM   11  N   UNL     1     -43.440 -50.820  12.882  1.00  0.00    -0.338 N 
HETATM   12  S   UNL     1     -41.690 -47.624  10.368  1.00  0.00    -0.038 SA
HETATM   13  H   UNL     1     -40.653 -49.343  12.208  1.00  0.00     0.172 HD
HETATM   14  H   UNL     1     -44.045 -50.109  12.478  1.00  0.00     0.164 HD
ENDROOT
BRANCH  11  15
HETATM   15  C   UNL     1     -44.059 -52.026  13.402  1.00  0.00     0.086 C 
HETATM   16  C   UNL     1     -45.323 -52.354  12.591  1.00  0.00     0.025 C 
HETATM   17  C   UNL     1     -46.551 -51.543  12.999  1.00  0.00     0.002 C 
HETATM   18  C   UNL     1     -46.801 -51.649  14.498  1.00  0.00     0.000 C 
HETATM   19  C   UNL     1     -45.590 -51.155  15.279  1.00  0.00     0.002 C 
HETATM   20  C   UNL     1     -44.319 -51.919  14.909  1.00  0.00     0.025 C 
ENDBRANCH  11  15
TORSDOF 1
ENDMDL
MODEL 2
REMARK VINA RESULT:      -5.6      1.786      2.062
REMARK  1 active torsions:
REMARK  status: ('A' for Active; 'I' for Inactive)
REMARK       I    between atoms: N_8  and  C_9 
REMARK       I    between atoms: C_9  and  N_11 
REMARK    1  A    between atoms: N_11  and  C_12 
ROOT
HETATM    1  C   UNL     1     -41.225 -46.979  10.634  1.00  0.00     0.078 C 
HETATM    2  C   UNL     1     -41.596 -48.274  11.251  1.00  0.00     0.066 A 
HETATM    3  N   UNL     1     -42.802 -48.551  11.701  1.00  0.00    -0.296 N 
ATOM      4  HN  UNL     1     -43.575 -47.888  11.706  1.00  0.00     0.187 HD
HETATM    5  N   UNL     1     -42.891 -49.837  12.160  1.00  0.00    -0.279 N 
ATOM      6  HN  UNL     1     -43.744 -50.248  12.541  1.00  0.00     0.189 HD
HETATM    7  C   UNL     1     -41.750 -50.483  12.053  1.00  0.00     0.169 A 
HETATM    8  N   UNL     1     -41.505 -51.792  12.355  1.00  0.00    -0.288 N 
HETATM    9  C   UNL     1     -42.479 -52.707  12.632  1.00  0.00     0.322 C 
HETATM   10  O   UNL     1     -42.171 -53.879  12.836  1.00  0.00    -0.247 OA
HETATM   11  N   UNL     1     -43.771 -52.266  12.585  1.00  0.00    -0.338 N 
HETATM   12  S   UNL     1     -40.464 -49.564  11.419  1.00  0.00    -0.038 SA
HETATM   13  H   UNL     1     -40.564 -52.150  12.270  1.00  0.00     0.172 HD
HETATM   14  H   UNL     1     -43.923 -51.260  12.576  1.00  0.00     0.164 HD
ENDROOT
BRANCH  11  15
HETATM   15  C   UNL     1     -44.939 -53.129  12.632  1.00  0.00     0.086 C 
HETATM   16  C   UNL     1     -46.210 -52.300  12.392  1.00  0.00     0.025 C 
HETATM   17  C   UNL     1     -46.708 -51.554  13.628  1.00  0.00     0.002 C 
HETATM   18  C   UNL     1     -46.869 -52.502  14.809  1.00  0.00     0.000 C 
HETATM   19  C   UNL     1     -45.546 -53.185  15.133  1.00  0.00     0.002 C 
HETATM   20  C   UNL     1     -44.984 -53.943  13.931  1.00  0.00     0.025 C 
ENDBRANCH  11  15
TORSDOF 1
ENDMDL
MODEL 3
REMARK VINA RESULT:      -5.6      3.184      5.597
REMARK  1 active torsions:
REMARK  status: ('A' for Active; 'I' for Inactive)
REMARK       I    between atoms: N_8  and  C_9 
REMARK       I    between atoms: C_9  and  N_11 
REMARK    1  A    between atoms: N_11  and  C_12 
ROOT
HETATM    1  C   UNL     1     -44.871 -54.646  13.503  1.00  0.00     0.078 C 
HETATM    2  C   UNL     1     -43.791 -53.778  12.979  1.00  0.00     0.066 A 
HETATM    3  N   UNL     1     -44.001 -52.733  12.207  1.00  0.00    -0.296 N 
ATOM      4  HN  UNL     1     -44.919 -52.452  11.864  1.00  0.00     0.187 HD
HETATM    5  N   UNL     1     -42.839 -52.069  11.920  1.00  0.00    -0.279 N 
ATOM      6  HN  UNL     1     -42.791 -51.229  11.343  1.00  0.00     0.189 HD
HETATM    7  C   UNL     1     -41.792 -52.639  12.475  1.00  0.00     0.169 A 
HETATM    8  N   UNL     1     -40.497 -52.205  12.446  1.00  0.00    -0.288 N 
HETATM    9  C   UNL     1     -40.115 -50.975  11.995  1.00  0.00     0.322 C 
HETATM   10  O   UNL     1     -38.932 -50.645  12.061  1.00  0.00    -0.247 OA
HETATM   11  N   UNL     1     -41.106 -50.140  11.564  1.00  0.00    -0.338 N 
HETATM   12  S   UNL     1     -42.131 -54.054  13.359  1.00  0.00    -0.038 SA
HETATM   13  H   UNL     1     -39.779 -52.769  12.876  1.00  0.00     0.172 HD
HETATM   14  H   UNL     1     -42.020 -50.549  11.389  1.00  0.00     0.164 HD
ENDROOT
BRANCH  11  15
HETATM   15  C   UNL     1     -40.922 -48.731  11.260  1.00  0.00     0.086 C 
HETATM   16  C   UNL     1     -40.771 -47.933  12.564  1.00  0.00     0.025 C 
HETATM   17  C   UNL     1     -42.096 -47.613  13.253  1.00  0.00     0.002 C 
HETATM   18  C   UNL     1     -43.064 -46.941  12.290  1.00  0.00     0.000 C 
HETATM   19  C   UNL     1     -43.328 -47.834  11.084  1.00  0.00     0.002 C 
HETATM   20  C   UNL     1     -42.038 -48.202  10.352  1.00  0.00     0.025 C 
ENDBRANCH  11  15
TORSDOF 1
ENDMDL
MODEL 4
REMARK VINA RESULT:      -5.6      3.900      4.725
REMARK  1 active torsions:
REMARK  status: ('A' for Active; 'I' for Inactive)
REMARK       I    between atoms: N_8  and  C_9 
REMARK       I    between atoms: C_9  and  N_11 
REMARK    1  A    between atoms: N_11  and  C_12 
ROOT
HETATM    1  C   UNL     1     -46.444 -47.823   8.803  1.00  0.00     0.078 C 
HETATM    2  C   UNL     1     -45.128 -47.496   9.400  1.00  0.00     0.066 A 
HETATM    3  N   UNL     1     -44.589 -48.167  10.396  1.00  0.00    -0.296 N 
ATOM      4  HN  UNL     1     -45.045 -48.942  10.875  1.00  0.00     0.187 HD
HETATM    5  N   UNL     1     -43.342 -47.698  10.710  1.00  0.00    -0.279 N 
ATOM      6  HN  UNL     1     -42.756 -48.089  11.448  1.00  0.00     0.189 HD
HETATM    7  C   UNL     1     -42.987 -46.684   9.951  1.00  0.00     0.169 A 
HETATM    8  N   UNL     1     -41.792 -46.024   9.953  1.00  0.00    -0.288 N 
HETATM    9  C   UNL     1     -40.683 -46.455  10.622  1.00  0.00     0.322 C 
HETATM   10  O   UNL     1     -39.630 -45.828  10.519  1.00  0.00    -0.247 OA
HETATM   11  N   UNL     1     -40.796 -47.628  11.313  1.00  0.00    -0.338 N 
HETATM   12  S   UNL     1     -44.159 -46.194   8.817  1.00  0.00    -0.038 SA
HETATM   13  H   UNL     1     -41.669 -45.226   9.346  1.00  0.00     0.172 HD
HETATM   14  H   UNL     1     -41.733 -47.985  11.479  1.00  0.00     0.164 HD
ENDROOT
BRANCH  11  15
HETATM   15  C   UNL     1     -39.679 -48.351  11.896  1.00  0.00     0.086 C 
HETATM   16  C   UNL     1     -39.766 -49.838  11.516  1.00  0.00     0.025 C 
HETATM   17  C   UNL     1     -40.740 -50.642  12.374  1.00  0.00     0.002 C 
HETATM   18  C   UNL     1     -40.442 -50.456  13.856  1.00  0.00     0.000 C 
HETATM   19  C   UNL     1     -40.530 -48.985  14.241  1.00  0.00     0.002 C 
HETATM   20  C   UNL     1     -39.587 -48.118  13.408  1.00  0.00     0.025 C 
ENDBRANCH  11  15
TORSDOF 1
ENDMDL
MODEL 5
REMARK VINA RESULT:      -5.6      4.194      4.861
REMARK  1 active torsions:
REMARK  status: ('A' for Active; 'I' for Inactive)
REMARK       I    between atoms: N_8  and  C_9 
REMARK       I    between atoms: C_9  and  N_11 
REMARK    1  A    between atoms: N_11  and  C_12 
ROOT
HETATM    1  C   UNL     1     -38.269 -51.156  13.211  1.00  0.00     0.078 C 
HETATM    2  C   UNL     1     -39.475 -51.882  13.672  1.00  0.00     0.066 A 
HETATM    3  N   UNL     1     -40.693 -51.388  13.617  1.00  0.00    -0.296 N 
ATOM      4  HN  UNL     1     -40.913 -50.446  13.295  1.00  0.00     0.187 HD
HETATM    5  N   UNL     1     -41.630 -52.290  14.045  1.00  0.00    -0.279 N 
ATOM      6  HN  UNL     1     -42.632 -52.101  14.071  1.00  0.00     0.189 HD
HETATM    7  C   UNL     1     -41.088 -53.429  14.417  1.00  0.00     0.169 A 
HETATM    8  N   UNL     1     -41.732 -54.558  14.833  1.00  0.00    -0.288 N 
HETATM    9  C   UNL     1     -43.080 -54.750  14.732  1.00  0.00     0.322 C 
HETATM   10  O   UNL     1     -43.568 -55.823  15.078  1.00  0.00    -0.247 OA
HETATM   11  N   UNL     1     -43.805 -53.741  14.164  1.00  0.00    -0.338 N 
HETATM   12  S   UNL     1     -39.389 -53.481  14.314  1.00  0.00    -0.038 SA
HETATM   13  H   UNL     1     -41.187 -55.352  15.139  1.00  0.00     0.172 HD
HETATM   14  H   UNL     1     -43.351 -52.837  14.064  1.00  0.00     0.164 HD
ENDROOT
BRANCH  11  15
HETATM   15  C   UNL     1     -45.200 -53.849  13.774  1.00  0.00     0.086 C 
HETATM   16  C   UNL     1     -45.504 -52.848  12.648  1.00  0.00     0.025 C 
HETATM   17  C   UNL     1     -45.748 -51.421  13.134  1.00  0.00     0.002 C 
HETATM   18  C   UNL     1     -46.815 -51.389  14.220  1.00  0.00     0.000 C 
HETATM   19  C   UNL     1     -46.405 -52.259  15.401  1.00  0.00     0.002 C 
HETATM   20  C   UNL     1     -46.134 -53.703  14.981  1.00  0.00     0.025 C 
ENDBRANCH  11  15
TORSDOF 1
ENDMDL
MODEL 6
REMARK VINA RESULT:      -5.4      2.113      2.542
REMARK  1 active torsions:
REMARK  status: ('A' for Active; 'I' for Inactive)
REMARK       I    between atoms: N_8  and  C_9 
REMARK       I    between atoms: C_9  and  N_11 
REMARK    1  A    between atoms: N_11  and  C_12 
ROOT
HETATM    1  C   UNL     1     -41.947 -47.394  10.302  1.00  0.00     0.078 C 
HETATM    2  C   UNL     1     -41.763 -48.677  11.020  1.00  0.00     0.066 A 
HETATM    3  N   UNL     1     -42.717 -49.280  11.696  1.00  0.00    -0.296 N 
ATOM      4  HN  UNL     1     -43.654 -48.899  11.826  1.00  0.00     0.187 HD
HETATM    5  N   UNL     1     -42.300 -50.480  12.206  1.00  0.00    -0.279 N 
ATOM      6  HN  UNL     1     -42.894 -51.103  12.753  1.00  0.00     0.189 HD
HETATM    7  C   UNL     1     -41.045 -50.737  11.907  1.00  0.00     0.169 A 
HETATM    8  N   UNL     1     -40.337 -51.867  12.200  1.00  0.00    -0.288 N 
HETATM    9  C   UNL     1     -40.895 -53.014  12.684  1.00  0.00     0.322 C 
HETATM   10  O   UNL     1     -40.189 -54.004  12.864  1.00  0.00    -0.247 OA
HETATM   11  N   UNL     1     -42.249 -53.013  12.866  1.00  0.00    -0.338 N 
HETATM   12  S   UNL     1     -40.258 -49.520  11.014  1.00  0.00    -0.038 SA
HETATM   13  H   UNL     1     -39.359 -51.913  11.951  1.00  0.00     0.172 HD
HETATM   14  H   UNL     1     -42.722 -52.113  12.854  1.00  0.00     0.164 HD
ENDROOT
BRANCH  11  15
HETATM   15  C   UNL     1     -43.042 -54.194  13.160  1.00  0.00     0.086 C 
HETATM   16  C   UNL     1     -44.429 -54.063  12.512  1.00  0.00     0.025 C 
HETATM   17  C   UNL     1     -45.409 -53.205  13.309  1.00  0.00     0.002 C 
HETATM   18  C   UNL     1     -45.503 -53.682  14.752  1.00  0.00     0.000 C 
HETATM   19  C   UNL     1     -44.136 -53.638  15.422  1.00  0.00     0.002 C 
HETATM   20  C   UNL     1     -43.101 -54.471  14.667  1.00  0.00     0.025 C 
ENDBRANCH  11  15
TORSDOF 1
ENDMDL
MODEL 7
REMARK VINA RESULT:      -5.3      3.506      5.790
REMARK  1 active torsions:
REMARK  status: ('A' for Active; 'I' for Inactive)
REMARK       I    between atoms: N_8  and  C_9 
REMARK       I    between atoms: C_9  and  N_11 
REMARK    1  A    between atoms: N_11  and  C_12 
ROOT
HETATM    1  C   UNL     1     -46.615 -51.893  12.881  1.00  0.00     0.078 C 
HETATM    2  C   UNL     1     -45.153 -52.109  12.776  1.00  0.00     0.066 A 
HETATM    3  N   UNL     1     -44.275 -51.136  12.659  1.00  0.00    -0.296 N 
ATOM      4  HN  UNL     1     -44.523 -50.150  12.585  1.00  0.00     0.187 HD
HETATM    5  N   UNL     1     -42.990 -51.607  12.648  1.00  0.00    -0.279 N 
ATOM      6  HN  UNL     1     -42.166 -51.011  12.573  1.00  0.00     0.189 HD
HETATM    7  C   UNL     1     -42.941 -52.918  12.745  1.00  0.00     0.169 A 
HETATM    8  N   UNL     1     -41.828 -53.704  12.828  1.00  0.00    -0.288 N 
HETATM    9  C   UNL     1     -40.567 -53.222  13.029  1.00  0.00     0.322 C 
HETATM   10  O   UNL     1     -39.629 -54.007  13.150  1.00  0.00    -0.247 OA
HETATM   11  N   UNL     1     -40.438 -51.869  13.167  1.00  0.00    -0.338 N 
HETATM   12  S   UNL     1     -44.459 -53.688  12.819  1.00  0.00    -0.038 SA
HETATM   13  H   UNL     1     -41.934 -54.708  12.850  1.00  0.00     0.172 HD
HETATM   14  H   UNL     1     -41.228 -51.292  12.889  1.00  0.00     0.164 HD
ENDROOT
BRANCH  11  15
HETATM   15  C   UNL     1     -39.225 -51.197  13.602  1.00  0.00     0.086 C 
HETATM   16  C   UNL     1     -39.582 -50.044  14.553  1.00  0.00     0.025 C 
HETATM   17  C   UNL     1     -40.036 -48.770  13.843  1.00  0.00     0.002 C 
HETATM   18  C   UNL     1     -39.022 -48.341  12.792  1.00  0.00     0.000 C 
HETATM   19  C   UNL     1     -38.816 -49.444  11.762  1.00  0.00     0.002 C 
HETATM   20  C   UNL     1     -38.370 -50.755  12.409  1.00  0.00     0.025 C 
ENDBRANCH  11  15
TORSDOF 1
ENDMDL
MODEL 8
REMARK VINA RESULT:      -5.0      4.677      5.060
REMARK  1 active torsions:
REMARK  status: ('A' for Active; 'I' for Inactive)
REMARK       I    between atoms: N_8  and  C_9 
REMARK       I    between atoms: C_9  and  N_11 
REMARK    1  A    between atoms: N_11  and  C_12 
ROOT
HETATM    1  C   UNL     1     -38.833 -51.427  14.548  1.00  0.00     0.078 C 
HETATM    2  C   UNL     1     -40.093 -52.193  14.404  1.00  0.00     0.066 A 
HETATM    3  N   UNL     1     -40.910 -52.453  15.403  1.00  0.00    -0.296 N 
ATOM      4  HN  UNL     1     -40.730 -52.190  16.371  1.00  0.00     0.187 HD
HETATM    5  N   UNL     1     -42.031 -53.118  14.985  1.00  0.00    -0.279 N 
ATOM      6  HN  UNL     1     -42.789 -53.402  15.605  1.00  0.00     0.189 HD
HETATM    7  C   UNL     1     -42.018 -53.347  13.689  1.00  0.00     0.169 A 
HETATM    8  N   UNL     1     -43.000 -53.927  12.939  1.00  0.00    -0.288 N 
HETATM    9  C   UNL     1     -44.261 -54.182  13.396  1.00  0.00     0.322 C 
HETATM   10  O   UNL     1     -45.101 -54.653  12.632  1.00  0.00    -0.247 OA
HETATM   11  N   UNL     1     -44.537 -53.813  14.683  1.00  0.00    -0.338 N 
HETATM   12  S   UNL     1     -40.621 -52.806  12.880  1.00  0.00    -0.038 SA
HETATM   13  H   UNL     1     -42.839 -54.087  11.955  1.00  0.00     0.172 HD
HETATM   14  H   UNL     1     -43.749 -53.590  15.285  1.00  0.00     0.164 HD
ENDROOT
BRANCH  11  15
HETATM   15  C   UNL     1     -45.866 -53.800  15.268  1.00  0.00     0.086 C 
HETATM   16  C   UNL     1     -46.754 -52.791  14.523  1.00  0.00     0.025 C 
HETATM   17  C   UNL     1     -46.545 -51.342  14.957  1.00  0.00     0.002 C 
HETATM   18  C   UNL     1     -46.677 -51.200  16.467  1.00  0.00     0.000 C 
HETATM   19  C   UNL     1     -45.665 -52.088  17.180  1.00  0.00     0.002 C 
HETATM   20  C   UNL     1     -45.811 -53.556  16.781  1.00  0.00     0.025 C 
ENDBRANCH  11  15
TORSDOF 1
ENDMDL
MODEL 9
REMARK VINA RESULT:      -5.0      2.816      5.592
REMARK  1 active torsions:
REMARK  status: ('A' for Active; 'I' for Inactive)
REMARK       I    between atoms: N_8  and  C_9 
REMARK       I    between atoms: C_9  and  N_11 
REMARK    1  A    between atoms: N_11  and  C_12 
ROOT
HETATM    1  C   UNL     1     -46.904 -51.738  15.124  1.00  0.00     0.078 C 
HETATM    2  C   UNL     1     -45.708 -51.812  14.253  1.00  0.00     0.066 A 
HETATM    3  N   UNL     1     -45.321 -50.839  13.457  1.00  0.00    -0.296 N 
ATOM      4  HN  UNL     1     -45.831 -49.965  13.334  1.00  0.00     0.187 HD
HETATM    5  N   UNL     1     -44.151 -51.141  12.814  1.00  0.00    -0.279 N 
ATOM      6  HN  UNL     1     -43.682 -50.513  12.160  1.00  0.00     0.189 HD
HETATM    7  C   UNL     1     -43.701 -52.334  13.137  1.00  0.00     0.169 A 
HETATM    8  N   UNL     1     -42.536 -52.919  12.732  1.00  0.00    -0.288 N 
HETATM    9  C   UNL     1     -41.539 -52.260  12.072  1.00  0.00     0.322 C 
HETATM   10  O   UNL     1     -40.497 -52.853  11.798  1.00  0.00    -0.247 OA
HETATM   11  N   UNL     1     -41.735 -50.931  11.827  1.00  0.00    -0.338 N 
HETATM   12  S   UNL     1     -44.686 -53.201  14.221  1.00  0.00    -0.038 SA
HETATM   13  H   UNL     1     -42.334 -53.866  13.019  1.00  0.00     0.172 HD
HETATM   14  H   UNL     1     -42.680 -50.569  11.935  1.00  0.00     0.164 HD
ENDROOT
BRANCH  11  15
HETATM   15  C   UNL     1     -40.711 -50.023  11.341  1.00  0.00     0.086 C 
HETATM   16  C   UNL     1     -39.669 -49.777  12.443  1.00  0.00     0.025 C 
HETATM   17  C   UNL     1     -40.097 -48.743  13.483  1.00  0.00     0.002 C 
HETATM   18  C   UNL     1     -40.528 -47.444  12.815  1.00  0.00     0.000 C 
HETATM   19  C   UNL     1     -41.680 -47.693  11.850  1.00  0.00     0.002 C 
HETATM   20  C   UNL     1     -41.322 -48.730  10.787  1.00  0.00     0.025 C 
ENDBRANCH  11  15
TORSDOF 1
ENDMDL
