MODEL 1
REMARK VINA RESULT:      -7.7      0.000      0.000
REMARK  4 active torsions:
REMARK  status: ('A' for Active; 'I' for Inactive)
REMARK    1  A    between atoms: C_2  and  N_3 
REMARK    2  A    between atoms: N_4  and  C_18 
REMARK    3  A    between atoms: C_18  and  C_20 
REMARK    4  A    between atoms: C_20  and  O_26 
ROOT
HETATM    1  C   UNL     1     -42.552 -50.097  13.300  1.00  0.00     0.122 A 
HETATM    2  C   UNL     1     -42.662 -51.506  13.136  1.00  0.00     0.136 A 
HETATM    3  N   UNL     1     -41.649 -48.135  12.890  1.00  0.00    -0.324 N 
HETATM    4  C   UNL     1     -41.499 -49.477  12.642  1.00  0.00     0.140 A 
HETATM    5  N   UNL     1     -43.256 -49.153  14.036  1.00  0.00    -0.346 N 
ATOM      6  HN  UNL     1     -44.079 -49.308  14.617  1.00  0.00     0.167 HD
HETATM    7  C   UNL     1     -42.629 -48.014  13.820  1.00  0.00     0.185 C 
HETATM    8  N   UNL     1     -41.639 -52.124  12.482  1.00  0.00    -0.337 N 
ATOM      9  HN  UNL     1     -41.617 -53.142  12.412  1.00  0.00     0.168 HD
HETATM   10  N   UNL     1     -40.528 -50.049  11.911  1.00  0.00    -0.336 N 
ATOM     11  HN  UNL     1     -39.797 -49.541  11.415  1.00  0.00     0.168 HD
HETATM   12  C   UNL     1     -40.659 -51.387  11.928  1.00  0.00     0.183 A 
ENDROOT
BRANCH   2  13
HETATM   13  N   UNL     1     -43.696 -52.290  13.588  1.00  0.00    -0.355 N 
HETATM   14  C   UNL     1     -44.027 -52.424  14.992  1.00  0.00     0.092 C 
HETATM   15  C   UNL     1     -45.436 -51.881  15.270  1.00  0.00     0.104 C 
HETATM   16  C   UNL     1     -43.845 -53.887  15.375  1.00  0.00     0.026 C 
HETATM   17  C   UNL     1     -46.453 -52.036  14.153  1.00  0.00     0.247 C 
HETATM   18  C   UNL     1     -45.963 -52.224  12.738  1.00  0.00     0.104 C 
HETATM   19  F   UNL     1     -47.269 -50.937  14.172  1.00  0.00    -0.206 F 
HETATM   20  F   UNL     1     -47.279 -53.080  14.462  1.00  0.00    -0.206 F 
HETATM   21  C   UNL     1     -44.610 -52.915  12.653  1.00  0.00     0.092 C 
HETATM   22  C   UNL     1     -44.628 -54.426  12.922  1.00  0.00     0.026 C 
HETATM   23  C   UNL     1     -44.350 -54.908  14.352  1.00  0.00     0.004 C 
ENDBRANCH   2  13
BRANCH   3  24
HETATM   24  C   UNL     1     -40.796 -47.094  12.353  1.00  0.00     0.169 C 
BRANCH  24  25
HETATM   25  C   UNL     1     -41.181 -46.590  10.931  1.00  0.00     0.078 C 
HETATM   26  C   UNL     1     -40.054 -45.702  10.372  1.00  0.00     0.066 C 
HETATM   27  C   UNL     1     -40.071 -44.310  10.982  1.00  0.00     0.170 C 
HETATM   28  O   UNL     1     -41.327 -43.688  10.741  1.00  0.00    -0.391 OA
HETATM   29  C   UNL     1     -42.409 -44.376  11.361  1.00  0.00     0.170 C 
HETATM   30  C   UNL     1     -42.513 -45.817  10.876  1.00  0.00     0.066 C 
BRANCH  25  31
HETATM   31  O   UNL     1     -41.323 -47.701  10.035  1.00  0.00    -0.388 OA
HETATM   32  H   UNL     1     -41.893 -47.454   9.285  1.00  0.00     0.210 HD
ENDBRANCH  25  31
ENDBRANCH  24  25
ENDBRANCH   3  24
TORSDOF 4
ENDMDL
MODEL 2
REMARK VINA RESULT:      -7.7      0.995      2.182
REMARK  4 active torsions:
REMARK  status: ('A' for Active; 'I' for Inactive)
REMARK    1  A    between atoms: C_2  and  N_3 
REMARK    2  A    between atoms: N_4  and  C_18 
REMARK    3  A    between atoms: C_18  and  C_20 
REMARK    4  A    between atoms: C_20  and  O_26 
ROOT
HETATM    1  C   UNL     1     -42.719 -49.716  13.355  1.00  0.00     0.122 A 
HETATM    2  C   UNL     1     -43.003 -51.101  13.186  1.00  0.00     0.136 A 
HETATM    3  N   UNL     1     -41.617 -47.867  12.911  1.00  0.00    -0.324 N 
HETATM    4  C   UNL     1     -41.640 -49.214  12.643  1.00  0.00     0.140 A 
HETATM    5  N   UNL     1     -43.266 -48.708  14.137  1.00  0.00    -0.346 N 
ATOM      6  HN  UNL     1     -44.068 -48.774  14.763  1.00  0.00     0.167 HD
HETATM    7  C   UNL     1     -42.523 -47.646  13.895  1.00  0.00     0.185 C 
HETATM    8  N   UNL     1     -42.098 -51.824  12.469  1.00  0.00    -0.337 N 
ATOM      9  HN  UNL     1     -42.199 -52.836  12.390  1.00  0.00     0.168 HD
HETATM   10  N   UNL     1     -40.785 -49.884  11.853  1.00  0.00    -0.336 N 
ATOM     11  HN  UNL     1     -40.028 -49.458  11.320  1.00  0.00     0.168 HD
HETATM   12  C   UNL     1     -41.071 -51.198  11.866  1.00  0.00     0.183 A 
ENDROOT
BRANCH   2  13
HETATM   13  N   UNL     1     -44.095 -51.765  13.690  1.00  0.00    -0.355 N 
HETATM   14  C   UNL     1     -45.065 -52.435  12.847  1.00  0.00     0.092 C 
HETATM   15  C   UNL     1     -45.076 -53.944  13.130  1.00  0.00     0.104 C 
HETATM   16  C   UNL     1     -46.414 -51.759  13.064  1.00  0.00     0.026 C 
HETATM   17  C   UNL     1     -44.774 -54.368  14.556  1.00  0.00     0.247 C 
HETATM   18  C   UNL     1     -44.021 -53.419  15.457  1.00  0.00     0.104 C 
HETATM   19  F   UNL     1     -44.072 -55.543  14.506  1.00  0.00    -0.206 F 
HETATM   20  F   UNL     1     -45.950 -54.697  15.168  1.00  0.00    -0.206 F 
HETATM   21  C   UNL     1     -44.250 -51.954  15.118  1.00  0.00     0.092 C 
HETATM   22  C   UNL     1     -45.612 -51.387  15.542  1.00  0.00     0.026 C 
HETATM   23  C   UNL     1     -46.750 -51.402  14.514  1.00  0.00     0.004 C 
ENDBRANCH   2  13
BRANCH   3  24
HETATM   24  C   UNL     1     -40.679 -46.925  12.334  1.00  0.00     0.169 C 
BRANCH  24  25
HETATM   25  C   UNL     1     -41.061 -46.390  10.923  1.00  0.00     0.078 C 
HETATM   26  C   UNL     1     -39.951 -45.456  10.403  1.00  0.00     0.066 C 
HETATM   27  C   UNL     1     -40.011 -44.084  11.054  1.00  0.00     0.170 C 
HETATM   28  O   UNL     1     -41.280 -43.487  10.816  1.00  0.00    -0.391 OA
HETATM   29  C   UNL     1     -42.350 -44.222  11.403  1.00  0.00     0.170 C 
HETATM   30  C   UNL     1     -42.411 -45.649  10.874  1.00  0.00     0.066 C 
BRANCH  25  31
HETATM   31  O   UNL     1     -41.163 -47.477   9.993  1.00  0.00    -0.388 OA
HETATM   32  H   UNL     1     -40.275 -47.764   9.716  1.00  0.00     0.210 HD
ENDBRANCH  25  31
ENDBRANCH  24  25
ENDBRANCH   3  24
TORSDOF 4
ENDMDL
MODEL 3
REMARK VINA RESULT:      -6.8      4.435      8.096
REMARK  4 active torsions:
REMARK  status: ('A' for Active; 'I' for Inactive)
REMARK    1  A    between atoms: C_2  and  N_3 
REMARK    2  A    between atoms: N_4  and  C_18 
REMARK    3  A    between atoms: C_18  and  C_20 
REMARK    4  A    between atoms: C_20  and  O_26 
ROOT
HETATM    1  C   UNL     1     -41.952 -47.325  13.039  1.00  0.00     0.122 A 
HETATM    2  C   UNL     1     -42.408 -46.214  12.275  1.00  0.00     0.136 A 
HETATM    3  N   UNL     1     -41.719 -49.474  13.437  1.00  0.00    -0.324 N 
HETATM    4  C   UNL     1     -42.332 -48.582  12.592  1.00  0.00     0.140 A 
HETATM    5  N   UNL     1     -41.218 -47.453  14.211  1.00  0.00    -0.346 N 
ATOM      6  HN  UNL     1     -40.802 -46.707  14.768  1.00  0.00     0.167 HD
HETATM    7  C   UNL     1     -41.175 -48.750  14.447  1.00  0.00     0.185 C 
HETATM    8  N   UNL     1     -43.295 -46.485  11.277  1.00  0.00    -0.337 N 
ATOM      9  HN  UNL     1     -43.725 -45.723  10.754  1.00  0.00     0.168 HD
HETATM   10  N   UNL     1     -43.130 -48.885  11.556  1.00  0.00    -0.336 N 
ATOM     11  HN  UNL     1     -43.347 -49.832  11.246  1.00  0.00     0.168 HD
HETATM   12  C   UNL     1     -43.601 -47.763  10.985  1.00  0.00     0.183 A 
ENDROOT
BRANCH   2  13
HETATM   13  N   UNL     1     -42.041 -44.903  12.463  1.00  0.00    -0.355 N 
HETATM   14  C   UNL     1     -41.850 -44.320  13.775  1.00  0.00     0.092 C 
HETATM   15  C   UNL     1     -40.393 -43.872  13.961  1.00  0.00     0.104 C 
HETATM   16  C   UNL     1     -42.865 -43.195  13.936  1.00  0.00     0.026 C 
HETATM   17  C   UNL     1     -39.671 -43.384  12.718  1.00  0.00     0.247 C 
HETATM   18  C   UNL     1     -40.182 -43.809  11.362  1.00  0.00     0.104 C 
HETATM   19  F   UNL     1     -38.362 -43.773  12.813  1.00  0.00    -0.206 F 
HETATM   20  F   UNL     1     -39.627 -42.020  12.749  1.00  0.00    -0.206 F 
HETATM   21  C   UNL     1     -41.680 -44.069  11.334  1.00  0.00     0.092 C 
HETATM   22  C   UNL     1     -42.564 -42.814  11.351  1.00  0.00     0.026 C 
HETATM   23  C   UNL     1     -43.069 -42.306  12.707  1.00  0.00     0.004 C 
ENDBRANCH   2  13
BRANCH   3  24
HETATM   24  C   UNL     1     -41.794 -50.916  13.315  1.00  0.00     0.169 C 
BRANCH  24  25
HETATM   25  C   UNL     1     -40.741 -51.556  12.363  1.00  0.00     0.078 C 
HETATM   26  C   UNL     1     -40.896 -53.088  12.371  1.00  0.00     0.066 C 
HETATM   27  C   UNL     1     -40.299 -53.713  13.621  1.00  0.00     0.170 C 
HETATM   28  O   UNL     1     -38.921 -53.377  13.723  1.00  0.00    -0.391 OA
HETATM   29  C   UNL     1     -38.707 -51.977  13.872  1.00  0.00     0.170 C 
HETATM   30  C   UNL     1     -39.283 -51.191  12.701  1.00  0.00     0.066 C 
BRANCH  25  31
HETATM   31  O   UNL     1     -40.963 -51.119  11.014  1.00  0.00    -0.388 OA
HETATM   32  H   UNL     1     -40.587 -50.230  10.885  1.00  0.00     0.210 HD
ENDBRANCH  25  31
ENDBRANCH  24  25
ENDBRANCH   3  24
TORSDOF 4
ENDMDL
MODEL 4
REMARK VINA RESULT:      -6.7      1.367      2.103
REMARK  4 active torsions:
REMARK  status: ('A' for Active; 'I' for Inactive)
REMARK    1  A    between atoms: C_2  and  N_3 
REMARK    2  A    between atoms: N_4  and  C_18 
REMARK    3  A    between atoms: C_18  and  C_20 
REMARK    4  A    between atoms: C_20  and  O_26 
ROOT
HETATM    1  C   UNL     1     -42.659 -49.811  13.290  1.00  0.00     0.122 A 
HETATM    2  C   UNL     1     -43.524 -50.334  14.292  1.00  0.00     0.136 A 
HETATM    3  N   UNL     1     -41.090 -48.456  12.560  1.00  0.00    -0.324 N 
HETATM    4  C   UNL     1     -41.877 -48.724  13.653  1.00  0.00     0.140 A 
HETATM    5  N   UNL     1     -42.432 -50.118  11.955  1.00  0.00    -0.346 N 
ATOM      6  HN  UNL     1     -42.858 -50.868  11.410  1.00  0.00     0.167 HD
HETATM    7  C   UNL     1     -41.548 -49.231  11.545  1.00  0.00     0.185 C 
HETATM    8  N   UNL     1     -43.613 -49.622  15.450  1.00  0.00    -0.337 N 
ATOM      9  HN  UNL     1     -44.283 -49.896  16.169  1.00  0.00     0.168 HD
HETATM   10  N   UNL     1     -41.875 -48.058  14.819  1.00  0.00    -0.336 N 
ATOM     11  HN  UNL     1     -41.250 -47.285  15.047  1.00  0.00     0.168 HD
HETATM   12  C   UNL     1     -42.814 -48.556  15.642  1.00  0.00     0.183 A 
ENDROOT
BRANCH   2  13
HETATM   13  N   UNL     1     -44.278 -51.478  14.187  1.00  0.00    -0.355 N 
HETATM   14  C   UNL     1     -44.189 -52.569  15.136  1.00  0.00     0.092 C 
HETATM   15  C   UNL     1     -45.527 -52.764  15.862  1.00  0.00     0.104 C 
HETATM   16  C   UNL     1     -43.713 -53.803  14.381  1.00  0.00     0.026 C 
HETATM   17  C   UNL     1     -46.781 -52.450  15.067  1.00  0.00     0.247 C 
HETATM   18  C   UNL     1     -46.678 -51.534  13.871  1.00  0.00     0.104 C 
HETATM   19  F   UNL     1     -47.701 -51.913  15.927  1.00  0.00    -0.206 F 
HETATM   20  F   UNL     1     -47.341 -53.627  14.658  1.00  0.00    -0.206 F 
HETATM   21  C   UNL     1     -45.321 -51.584  13.186  1.00  0.00     0.092 C 
HETATM   22  C   UNL     1     -45.060 -52.837  12.338  1.00  0.00     0.026 C 
HETATM   23  C   UNL     1     -44.337 -54.017  12.999  1.00  0.00     0.004 C 
ENDBRANCH   2  13
BRANCH   3  24
HETATM   24  C   UNL     1     -40.075 -47.423  12.504  1.00  0.00     0.169 C 
BRANCH  24  25
HETATM   25  C   UNL     1     -40.444 -46.177  11.647  1.00  0.00     0.078 C 
HETATM   26  C   UNL     1     -39.610 -44.966  12.104  1.00  0.00     0.066 C 
HETATM   27  C   UNL     1     -40.142 -44.364  13.395  1.00  0.00     0.170 C 
HETATM   28  O   UNL     1     -41.497 -43.968  13.226  1.00  0.00    -0.391 OA
HETATM   29  C   UNL     1     -42.359 -45.066  12.948  1.00  0.00     0.170 C 
HETATM   30  C   UNL     1     -41.939 -45.807  11.684  1.00  0.00     0.066 C 
BRANCH  25  31
HETATM   31  O   UNL     1     -40.121 -46.411  10.269  1.00  0.00    -0.388 OA
HETATM   32  H   UNL     1     -40.148 -45.573   9.773  1.00  0.00     0.210 HD
ENDBRANCH  25  31
ENDBRANCH  24  25
ENDBRANCH   3  24
TORSDOF 4
ENDMDL
MODEL 5
REMARK VINA RESULT:      -6.7      1.663      2.816
REMARK  4 active torsions:
REMARK  status: ('A' for Active; 'I' for Inactive)
REMARK    1  A    between atoms: C_2  and  N_3 
REMARK    2  A    between atoms: N_4  and  C_18 
REMARK    3  A    between atoms: C_18  and  C_20 
REMARK    4  A    between atoms: C_20  and  O_26 
ROOT
HETATM    1  C   UNL     1     -42.901 -49.704  13.551  1.00  0.00     0.122 A 
HETATM    2  C   UNL     1     -43.720 -50.161  14.622  1.00  0.00     0.136 A 
HETATM    3  N   UNL     1     -41.322 -48.445  12.684  1.00  0.00    -0.324 N 
HETATM    4  C   UNL     1     -42.045 -48.650  13.833  1.00  0.00     0.140 A 
HETATM    5  N   UNL     1     -42.782 -50.050  12.213  1.00  0.00    -0.346 N 
ATOM      6  HN  UNL     1     -43.280 -50.789  11.716  1.00  0.00     0.167 HD
HETATM    7  C   UNL     1     -41.885 -49.218  11.722  1.00  0.00     0.185 C 
HETATM    8  N   UNL     1     -43.695 -49.421  15.765  1.00  0.00    -0.337 N 
ATOM      9  HN  UNL     1     -44.327 -49.645  16.535  1.00  0.00     0.168 HD
HETATM   10  N   UNL     1     -41.930 -47.960  14.980  1.00  0.00    -0.336 N 
ATOM     11  HN  UNL     1     -41.254 -47.216  15.147  1.00  0.00     0.168 HD
HETATM   12  C   UNL     1     -42.834 -48.393  15.877  1.00  0.00     0.183 A 
ENDROOT
BRANCH   2  13
HETATM   13  N   UNL     1     -44.535 -51.267  14.596  1.00  0.00    -0.355 N 
HETATM   14  C   UNL     1     -45.715 -51.356  13.759  1.00  0.00     0.092 C 
HETATM   15  C   UNL     1     -45.565 -52.488  12.733  1.00  0.00     0.104 C 
HETATM   16  C   UNL     1     -46.923 -51.511  14.674  1.00  0.00     0.026 C 
HETATM   17  C   UNL     1     -44.759 -53.698  13.172  1.00  0.00     0.247 C 
HETATM   18  C   UNL     1     -43.773 -53.547  14.305  1.00  0.00     0.104 C 
HETATM   19  F   UNL     1     -44.075 -54.166  12.082  1.00  0.00    -0.206 F 
HETATM   20  F   UNL     1     -45.626 -54.704  13.491  1.00  0.00    -0.206 F 
HETATM   21  C   UNL     1     -44.164 -52.473  15.309  1.00  0.00     0.092 C 
HETATM   22  C   UNL     1     -45.307 -52.850  16.261  1.00  0.00     0.026 C 
HETATM   23  C   UNL     1     -46.735 -52.455  15.865  1.00  0.00     0.004 C 
ENDBRANCH   2  13
BRANCH   3  24
HETATM   24  C   UNL     1     -40.264 -47.467  12.534  1.00  0.00     0.169 C 
BRANCH  24  25
HETATM   25  C   UNL     1     -40.622 -46.233  11.655  1.00  0.00     0.078 C 
HETATM   26  C   UNL     1     -39.692 -45.057  12.006  1.00  0.00     0.066 C 
HETATM   27  C   UNL     1     -40.097 -44.379  13.305  1.00  0.00     0.170 C 
HETATM   28  O   UNL     1     -41.437 -43.910  13.212  1.00  0.00    -0.391 OA
HETATM   29  C   UNL     1     -42.377 -44.966  13.037  1.00  0.00     0.170 C 
HETATM   30  C   UNL     1     -42.088 -45.775  11.779  1.00  0.00     0.066 C 
BRANCH  25  31
HETATM   31  O   UNL     1     -40.410 -46.535  10.269  1.00  0.00    -0.388 OA
HETATM   32  H   UNL     1     -41.183 -47.006   9.908  1.00  0.00     0.210 HD
ENDBRANCH  25  31
ENDBRANCH  24  25
ENDBRANCH   3  24
TORSDOF 4
ENDMDL
MODEL 6
REMARK VINA RESULT:      -6.7      2.628      3.335
REMARK  4 active torsions:
REMARK  status: ('A' for Active; 'I' for Inactive)
REMARK    1  A    between atoms: C_2  and  N_3 
REMARK    2  A    between atoms: N_4  and  C_18 
REMARK    3  A    between atoms: C_18  and  C_20 
REMARK    4  A    between atoms: C_20  and  O_26 
ROOT
HETATM    1  C   UNL     1     -40.942 -50.502  12.664  1.00  0.00     0.122 A 
HETATM    2  C   UNL     1     -39.959 -51.411  13.148  1.00  0.00     0.136 A 
HETATM    3  N   UNL     1     -41.620 -48.815  11.429  1.00  0.00    -0.324 N 
HETATM    4  C   UNL     1     -40.495 -49.504  11.811  1.00  0.00     0.140 A 
HETATM    5  N   UNL     1     -42.302 -50.343  12.889  1.00  0.00    -0.346 N 
ATOM      6  HN  UNL     1     -42.908 -50.925  13.467  1.00  0.00     0.167 HD
HETATM    7  C   UNL     1     -42.642 -49.276  12.193  1.00  0.00     0.185 C 
HETATM    8  N   UNL     1     -38.662 -51.117  12.854  1.00  0.00    -0.337 N 
ATOM      9  HN  UNL     1     -37.908 -51.680  13.248  1.00  0.00     0.168 HD
HETATM   10  N   UNL     1     -39.234 -49.246  11.427  1.00  0.00    -0.336 N 
ATOM     11  HN  UNL     1     -38.964 -48.519  10.765  1.00  0.00     0.168 HD
HETATM   12  C   UNL     1     -38.380 -50.083  12.041  1.00  0.00     0.183 A 
ENDROOT
BRANCH   2  13
HETATM   13  N   UNL     1     -40.205 -52.541  13.890  1.00  0.00    -0.355 N 
HETATM   14  C   UNL     1     -40.470 -52.505  15.314  1.00  0.00     0.092 C 
HETATM   15  C   UNL     1     -41.883 -53.025  15.614  1.00  0.00     0.104 C 
HETATM   16  C   UNL     1     -39.366 -53.288  16.013  1.00  0.00     0.026 C 
HETATM   17  C   UNL     1     -42.416 -54.107  14.692  1.00  0.00     0.247 C 
HETATM   18  C   UNL     1     -41.814 -54.257  13.316  1.00  0.00     0.104 C 
HETATM   19  F   UNL     1     -43.762 -53.905  14.540  1.00  0.00    -0.206 F 
HETATM   20  F   UNL     1     -42.321 -55.309  15.334  1.00  0.00    -0.206 F 
HETATM   21  C   UNL     1     -40.356 -53.829  13.244  1.00  0.00     0.092 C 
HETATM   22  C   UNL     1     -39.353 -54.810  13.867  1.00  0.00     0.026 C 
HETATM   23  C   UNL     1     -38.943 -54.591  15.328  1.00  0.00     0.004 C 
ENDBRANCH   2  13
BRANCH   3  24
HETATM   24  C   UNL     1     -41.635 -47.708  10.493  1.00  0.00     0.169 C 
BRANCH  24  25
HETATM   25  C   UNL     1     -41.895 -46.310  11.126  1.00  0.00     0.078 C 
HETATM   26  C   UNL     1     -41.284 -45.214  10.233  1.00  0.00     0.066 C 
HETATM   27  C   UNL     1     -39.775 -45.123  10.397  1.00  0.00     0.170 C 
HETATM   28  O   UNL     1     -39.448 -44.862  11.756  1.00  0.00    -0.391 OA
HETATM   29  C   UNL     1     -39.851 -45.912  12.629  1.00  0.00     0.170 C 
HETATM   30  C   UNL     1     -41.354 -46.156  12.560  1.00  0.00     0.066 C 
BRANCH  25  31
HETATM   31  O   UNL     1     -43.305 -46.053  11.198  1.00  0.00    -0.388 OA
HETATM   32  H   UNL     1     -43.465 -45.099  11.304  1.00  0.00     0.210 HD
ENDBRANCH  25  31
ENDBRANCH  24  25
ENDBRANCH   3  24
TORSDOF 4
ENDMDL
MODEL 7
REMARK VINA RESULT:      -6.7      3.833      7.573
REMARK  4 active torsions:
REMARK  status: ('A' for Active; 'I' for Inactive)
REMARK    1  A    between atoms: C_2  and  N_3 
REMARK    2  A    between atoms: N_4  and  C_18 
REMARK    3  A    between atoms: C_18  and  C_20 
REMARK    4  A    between atoms: C_20  and  O_26 
ROOT
HETATM    1  C   UNL     1     -40.695 -49.520  12.219  1.00  0.00     0.122 A 
HETATM    2  C   UNL     1     -39.928 -48.364  11.902  1.00  0.00     0.136 A 
HETATM    3  N   UNL     1     -40.943 -51.672  12.597  1.00  0.00    -0.324 N 
HETATM    4  C   UNL     1     -40.025 -50.734  12.190  1.00  0.00     0.140 A 
HETATM    5  N   UNL     1     -42.032 -49.737  12.522  1.00  0.00    -0.346 N 
ATOM      6  HN  UNL     1     -42.768 -49.038  12.618  1.00  0.00     0.167 HD
HETATM    7  C   UNL     1     -42.144 -51.044  12.660  1.00  0.00     0.185 C 
HETATM    8  N   UNL     1     -38.661 -48.579  11.452  1.00  0.00    -0.337 N 
ATOM      9  HN  UNL     1     -38.094 -47.797  11.124  1.00  0.00     0.168 HD
HETATM   10  N   UNL     1     -38.750 -50.968  11.841  1.00  0.00    -0.336 N 
ATOM     11  HN  UNL     1     -38.294 -51.880  11.874  1.00  0.00     0.168 HD
HETATM   12  C   UNL     1     -38.159 -49.828  11.442  1.00  0.00     0.183 A 
ENDROOT
BRANCH   2  13
HETATM   13  N   UNL     1     -40.358 -47.062  11.999  1.00  0.00    -0.355 N 
HETATM   14  C   UNL     1     -41.201 -46.435  11.002  1.00  0.00     0.092 C 
HETATM   15  C   UNL     1     -42.554 -46.038  11.610  1.00  0.00     0.104 C 
HETATM   16  C   UNL     1     -40.427 -45.266  10.407  1.00  0.00     0.026 C 
HETATM   17  C   UNL     1     -42.544 -45.630  13.073  1.00  0.00     0.247 C 
HETATM   18  C   UNL     1     -41.406 -46.088  13.952  1.00  0.00     0.104 C 
HETATM   19  F   UNL     1     -43.713 -46.066  13.638  1.00  0.00    -0.206 F 
HETATM   20  F   UNL     1     -42.618 -44.268  13.142  1.00  0.00    -0.206 F 
HETATM   21  C   UNL     1     -40.101 -46.289  13.198  1.00  0.00     0.092 C 
HETATM   22  C   UNL     1     -39.368 -45.000  12.801  1.00  0.00     0.026 C 
HETATM   23  C   UNL     1     -39.635 -44.418  11.407  1.00  0.00     0.004 C 
ENDBRANCH   2  13
BRANCH   3  24
HETATM   24  C   UNL     1     -40.665 -53.084  12.766  1.00  0.00     0.169 C 
BRANCH  24  25
HETATM   25  C   UNL     1     -39.770 -53.440  13.989  1.00  0.00     0.078 C 
HETATM   26  C   UNL     1     -40.204 -54.798  14.572  1.00  0.00     0.066 C 
HETATM   27  C   UNL     1     -41.472 -54.682  15.402  1.00  0.00     0.170 C 
HETATM   28  O   UNL     1     -41.277 -53.754  16.462  1.00  0.00    -0.391 OA
HETATM   29  C   UNL     1     -41.019 -52.433  15.994  1.00  0.00     0.170 C 
HETATM   30  C   UNL     1     -39.781 -52.381  15.108  1.00  0.00     0.066 C 
BRANCH  25  31
HETATM   31  O   UNL     1     -38.403 -53.578  13.578  1.00  0.00    -0.388 OA
HETATM   32  H   UNL     1     -37.985 -52.701  13.508  1.00  0.00     0.210 HD
ENDBRANCH  25  31
ENDBRANCH  24  25
ENDBRANCH   3  24
TORSDOF 4
ENDMDL
MODEL 8
REMARK VINA RESULT:      -6.7      4.731      8.029
REMARK  4 active torsions:
REMARK  status: ('A' for Active; 'I' for Inactive)
REMARK    1  A    between atoms: C_2  and  N_3 
REMARK    2  A    between atoms: N_4  and  C_18 
REMARK    3  A    between atoms: C_18  and  C_20 
REMARK    4  A    between atoms: C_20  and  O_26 
ROOT
HETATM    1  C   UNL     1     -40.693 -51.921  14.176  1.00  0.00     0.122 A 
HETATM    2  C   UNL     1     -40.109 -50.770  14.776  1.00  0.00     0.136 A 
HETATM    3  N   UNL     1     -42.182 -53.534  14.055  1.00  0.00    -0.324 N 
HETATM    4  C   UNL     1     -41.751 -52.505  14.857  1.00  0.00     0.140 A 
HETATM    5  N   UNL     1     -40.411 -52.662  13.037  1.00  0.00    -0.346 N 
ATOM      6  HN  UNL     1     -39.691 -52.477  12.338  1.00  0.00     0.167 HD
HETATM    7  C   UNL     1     -41.276 -53.657  13.053  1.00  0.00     0.185 C 
HETATM    8  N   UNL     1     -40.542 -50.451  16.028  1.00  0.00    -0.337 N 
ATOM      9  HN  UNL     1     -40.099 -49.691  16.545  1.00  0.00     0.168 HD
HETATM   10  N   UNL     1     -42.262 -52.156  16.049  1.00  0.00    -0.336 N 
ATOM     11  HN  UNL     1     -43.069 -52.598  16.489  1.00  0.00     0.168 HD
HETATM   12  C   UNL     1     -41.558 -51.141  16.579  1.00  0.00     0.183 A 
ENDROOT
BRANCH   2  13
HETATM   13  N   UNL     1     -39.148 -49.967  14.210  1.00  0.00    -0.355 N 
HETATM   14  C   UNL     1     -39.452 -48.695  13.588  1.00  0.00     0.092 C 
HETATM   15  C   UNL     1     -38.764 -47.547  14.340  1.00  0.00     0.104 C 
HETATM   16  C   UNL     1     -39.058 -48.791  12.119  1.00  0.00     0.026 C 
HETATM   17  C   UNL     1     -37.425 -47.864  14.982  1.00  0.00     0.247 C 
HETATM   18  C   UNL     1     -37.084 -49.302  15.288  1.00  0.00     0.104 C 
HETATM   19  F   UNL     1     -37.340 -47.155  16.150  1.00  0.00    -0.206 F 
HETATM   20  F   UNL     1     -36.435 -47.348  14.195  1.00  0.00    -0.206 F 
HETATM   21  C   UNL     1     -37.742 -50.295  14.343  1.00  0.00     0.092 C 
HETATM   22  C   UNL     1     -37.124 -50.374  12.940  1.00  0.00     0.026 C 
HETATM   23  C   UNL     1     -37.735 -49.506  11.833  1.00  0.00     0.004 C 
ENDBRANCH   2  13
BRANCH   3  24
HETATM   24  C   UNL     1     -43.310 -54.394  14.348  1.00  0.00     0.169 C 
BRANCH  24  25
HETATM   25  C   UNL     1     -44.571 -54.155  13.465  1.00  0.00     0.078 C 
HETATM   26  C   UNL     1     -44.975 -52.670  13.529  1.00  0.00     0.066 C 
HETATM   27  C   UNL     1     -45.692 -52.331  14.826  1.00  0.00     0.170 C 
HETATM   28  O   UNL     1     -46.851 -53.144  14.969  1.00  0.00    -0.391 OA
HETATM   29  C   UNL     1     -46.540 -54.530  15.069  1.00  0.00     0.170 C 
HETATM   30  C   UNL     1     -45.782 -55.028  13.845  1.00  0.00     0.066 C 
BRANCH  25  31
HETATM   31  O   UNL     1     -44.276 -54.450  12.092  1.00  0.00    -0.388 OA
HETATM   32  H   UNL     1     -44.570 -53.716  11.523  1.00  0.00     0.210 HD
ENDBRANCH  25  31
ENDBRANCH  24  25
ENDBRANCH   3  24
TORSDOF 4
ENDMDL
MODEL 9
REMARK VINA RESULT:      -6.6      4.252      7.866
REMARK  4 active torsions:
REMARK  status: ('A' for Active; 'I' for Inactive)
REMARK    1  A    between atoms: C_2  and  N_3 
REMARK    2  A    between atoms: N_4  and  C_18 
REMARK    3  A    between atoms: C_18  and  C_20 
REMARK    4  A    between atoms: C_20  and  O_26 
ROOT
HETATM    1  C   UNL     1     -41.867 -47.972  12.925  1.00  0.00     0.122 A 
HETATM    2  C   UNL     1     -41.576 -46.825  12.134  1.00  0.00     0.136 A 
HETATM    3  N   UNL     1     -42.269 -50.115  13.207  1.00  0.00    -0.324 N 
HETATM    4  C   UNL     1     -42.086 -49.158  12.239  1.00  0.00     0.140 A 
HETATM    5  N   UNL     1     -42.037 -48.188  14.286  1.00  0.00    -0.346 N 
ATOM      6  HN  UNL     1     -41.938 -47.507  15.039  1.00  0.00     0.167 HD
HETATM    7  C   UNL     1     -42.353 -49.463  14.393  1.00  0.00     0.185 C 
HETATM    8  N   UNL     1     -41.695 -46.971  10.785  1.00  0.00    -0.337 N 
ATOM      9  HN  UNL     1     -41.588 -46.162  10.172  1.00  0.00     0.168 HD
HETATM   10  N   UNL     1     -42.117 -49.352  10.910  1.00  0.00    -0.336 N 
ATOM     11  HN  UNL     1     -42.245 -50.256  10.457  1.00  0.00     0.168 HD
HETATM   12  C   UNL     1     -41.955 -48.184  10.265  1.00  0.00     0.183 A 
ENDROOT
BRANCH   2  13
HETATM   13  N   UNL     1     -41.200 -45.593  12.612  1.00  0.00    -0.355 N 
HETATM   14  C   UNL     1     -39.910 -44.998  12.327  1.00  0.00     0.092 C 
HETATM   15  C   UNL     1     -40.079 -43.699  11.528  1.00  0.00     0.104 C 
HETATM   16  C   UNL     1     -39.180 -44.816  13.652  1.00  0.00     0.026 C 
HETATM   17  C   UNL     1     -41.328 -42.885  11.814  1.00  0.00     0.247 C 
HETATM   18  C   UNL     1     -42.522 -43.572  12.432  1.00  0.00     0.104 C 
HETATM   19  F   UNL     1     -41.736 -42.313  10.638  1.00  0.00    -0.206 F 
HETATM   20  F   UNL     1     -40.984 -41.828  12.607  1.00  0.00    -0.206 F 
HETATM   21  C   UNL     1     -42.150 -44.753  13.315  1.00  0.00     0.092 C 
HETATM   22  C   UNL     1     -41.561 -44.389  14.685  1.00  0.00     0.026 C 
HETATM   23  C   UNL     1     -40.036 -44.308  14.815  1.00  0.00     0.004 C 
ENDBRANCH   2  13
BRANCH   3  24
HETATM   24  C   UNL     1     -42.481 -51.525  12.947  1.00  0.00     0.169 C 
BRANCH  24  25
HETATM   25  C   UNL     1     -41.227 -52.301  12.447  1.00  0.00     0.078 C 
HETATM   26  C   UNL     1     -41.294 -53.762  12.928  1.00  0.00     0.066 C 
HETATM   27  C   UNL     1     -40.920 -53.896  14.396  1.00  0.00     0.170 C 
HETATM   28  O   UNL     1     -39.610 -53.387  14.612  1.00  0.00    -0.391 OA
HETATM   29  C   UNL     1     -39.508 -51.995  14.330  1.00  0.00     0.170 C 
HETATM   30  C   UNL     1     -39.886 -51.683  12.888  1.00  0.00     0.066 C 
BRANCH  25  31
HETATM   31  O   UNL     1     -41.204 -52.333  11.013  1.00  0.00    -0.388 OA
HETATM   32  H   UNL     1     -41.883 -51.733  10.655  1.00  0.00     0.210 HD
ENDBRANCH  25  31
ENDBRANCH  24  25
ENDBRANCH   3  24
TORSDOF 4
ENDMDL
