MODEL 1
REMARK VINA RESULT:      -6.7      0.000      0.000
REMARK  4 active torsions:
REMARK  status: ('A' for Active; 'I' for Inactive)
REMARK    1  A    between atoms: C_2  and  C_5 
REMARK       I    between atoms: C_5  and  N_7 
REMARK    2  A    between atoms: C_10  and  C_11 
REMARK    3  A    between atoms: C_11  and  N_12 
REMARK       I    between atoms: N_12  and  C_13 
REMARK       I    between atoms: C_13  and  N_15 
REMARK    4  A    between atoms: N_15  and  C_16 
ROOT
HETATM    1  C   UNL     1     -41.162 -52.271  12.921  1.00  0.00     0.129 C 
ENDROOT
BRANCH   1   2
HETATM    2  C   UNL     1     -42.150 -53.447  12.942  1.00  0.00     0.006 C 
HETATM    3  C   UNL     1     -43.558 -53.089  12.445  1.00  0.00     0.026 C 
HETATM    4  C   UNL     1     -44.331 -52.198  13.415  1.00  0.00     0.126 C 
HETATM    5  N   UNL     1     -44.369 -52.785  14.756  1.00  0.00    -0.344 N 
HETATM    6  C   UNL     1     -45.467 -52.757  15.630  1.00  0.00     0.327 C 
HETATM    7  C   UNL     1     -43.061 -53.145  15.309  1.00  0.00     0.126 C 
HETATM    8  O   UNL     1     -45.338 -53.214  16.779  1.00  0.00    -0.263 OA
HETATM    9  C   UNL     1     -42.265 -54.041  14.357  1.00  0.00     0.026 C 
BRANCH   6  10
HETATM   10  C   UNL     1     -46.861 -52.228  15.189  1.00  0.00     0.472 C 
HETATM   11  F   UNL     1     -46.869 -51.063  14.486  1.00  0.00    -0.162 F 
HETATM   12  F   UNL     1     -47.671 -51.996  16.265  1.00  0.00    -0.162 F 
HETATM   13  F   UNL     1     -47.519 -53.139  14.414  1.00  0.00    -0.162 F 
ENDBRANCH   6  10
ENDBRANCH   1   2
BRANCH   1  14
HETATM   14  N   UNL     1     -41.365 -51.389  11.784  1.00  0.00    -0.342 N 
HETATM   15  C   UNL     1     -41.649 -50.059  11.996  1.00  0.00     0.320 C 
HETATM   16  O   UNL     1     -41.794 -49.596  13.121  1.00  0.00    -0.247 OA
HETATM   17  N   UNL     1     -41.778 -49.356  10.822  1.00  0.00    -0.308 N 
HETATM   18  H   UNL     1     -42.022 -49.901  10.002  1.00  0.00     0.170 HD
HETATM   19  H   UNL     1     -40.911 -51.630  10.915  1.00  0.00     0.164 HD
BRANCH  17  20
HETATM   20  C   UNL     1     -41.945 -47.954  10.748  1.00  0.00     0.051 A 
HETATM   21  C   UNL     1     -40.887 -47.052  10.851  1.00  0.00     0.032 A 
HETATM   22  C   UNL     1     -41.126 -45.681  10.801  1.00  0.00     0.019 A 
HETATM   23  C   UNL     1     -42.428 -45.249  10.629  1.00  0.00     0.088 A 
HETATM   24  N   UNL     1     -43.481 -46.085  10.491  1.00  0.00    -0.373 N 
HETATM   25  C   UNL     1     -43.213 -47.414  10.549  1.00  0.00     0.117 A 
ATOM     26  HN  UNL     1     -44.429 -45.735  10.351  1.00  0.00     0.164 HD
ENDBRANCH  17  20
ENDBRANCH   1  14
TORSDOF 4
ENDMDL
MODEL 2
REMARK VINA RESULT:      -6.4      5.031      7.786
REMARK  4 active torsions:
REMARK  status: ('A' for Active; 'I' for Inactive)
REMARK    1  A    between atoms: C_2  and  C_5 
REMARK       I    between atoms: C_5  and  N_7 
REMARK    2  A    between atoms: C_10  and  C_11 
REMARK    3  A    between atoms: C_11  and  N_12 
REMARK       I    between atoms: N_12  and  C_13 
REMARK       I    between atoms: C_13  and  N_15 
REMARK    4  A    between atoms: N_15  and  C_16 
ROOT
HETATM    1  C   UNL     1     -40.175 -50.198  11.816  1.00  0.00     0.129 C 
ENDROOT
BRANCH   1   2
HETATM    2  C   UNL     1     -38.724 -50.658  12.018  1.00  0.00     0.006 C 
HETATM    3  C   UNL     1     -38.488 -51.423  13.328  1.00  0.00     0.026 C 
HETATM    4  C   UNL     1     -38.561 -50.533  14.567  1.00  0.00     0.126 C 
HETATM    5  N   UNL     1     -37.660 -49.385  14.447  1.00  0.00    -0.344 N 
HETATM    6  C   UNL     1     -36.894 -48.835  15.486  1.00  0.00     0.327 C 
HETATM    7  C   UNL     1     -37.830 -48.592  13.227  1.00  0.00     0.126 C 
HETATM    8  O   UNL     1     -36.238 -47.801  15.273  1.00  0.00    -0.263 OA
HETATM    9  C   UNL     1     -37.759 -49.460  11.968  1.00  0.00     0.026 C 
BRANCH   6  10
HETATM   10  C   UNL     1     -36.789 -49.512  16.883  1.00  0.00     0.472 C 
HETATM   11  F   UNL     1     -37.953 -49.656  17.572  1.00  0.00    -0.162 F 
HETATM   12  F   UNL     1     -35.969 -48.807  17.719  1.00  0.00    -0.162 F 
HETATM   13  F   UNL     1     -36.247 -50.761  16.794  1.00  0.00    -0.162 F 
ENDBRANCH   6  10
ENDBRANCH   1   2
BRANCH   1  14
HETATM   14  N   UNL     1     -41.071 -51.296  11.492  1.00  0.00    -0.342 N 
HETATM   15  C   UNL     1     -41.940 -51.771  12.448  1.00  0.00     0.320 C 
HETATM   16  O   UNL     1     -41.948 -51.335  13.593  1.00  0.00    -0.247 OA
HETATM   17  N   UNL     1     -42.740 -52.784  11.974  1.00  0.00    -0.308 N 
HETATM   18  H   UNL     1     -42.380 -53.298  11.178  1.00  0.00     0.170 HD
HETATM   19  H   UNL     1     -41.339 -51.414  10.526  1.00  0.00     0.164 HD
BRANCH  17  20
HETATM   20  C   UNL     1     -43.802 -53.366  12.702  1.00  0.00     0.051 A 
HETATM   21  C   UNL     1     -43.627 -54.425  13.592  1.00  0.00     0.032 A 
HETATM   22  C   UNL     1     -44.723 -54.973  14.253  1.00  0.00     0.019 A 
HETATM   23  C   UNL     1     -45.972 -54.429  14.017  1.00  0.00     0.088 A 
HETATM   24  N   UNL     1     -46.186 -53.382  13.188  1.00  0.00    -0.373 N 
HETATM   25  C   UNL     1     -45.097 -52.875  12.557  1.00  0.00     0.117 A 
ATOM     26  HN  UNL     1     -47.118 -52.992  13.045  1.00  0.00     0.164 HD
ENDBRANCH  17  20
ENDBRANCH   1  14
TORSDOF 4
ENDMDL
MODEL 3
REMARK VINA RESULT:      -6.4      4.520      8.496
REMARK  4 active torsions:
REMARK  status: ('A' for Active; 'I' for Inactive)
REMARK    1  A    between atoms: C_2  and  C_5 
REMARK       I    between atoms: C_5  and  N_7 
REMARK    2  A    between atoms: C_10  and  C_11 
REMARK    3  A    between atoms: C_11  and  N_12 
REMARK       I    between atoms: N_12  and  C_13 
REMARK       I    between atoms: C_13  and  N_15 
REMARK    4  A    between atoms: N_15  and  C_16 
ROOT
HETATM    1  C   UNL     1     -41.758 -48.751  12.118  1.00  0.00     0.129 C 
ENDROOT
BRANCH   1   2
HETATM    2  C   UNL     1     -41.149 -48.000  10.925  1.00  0.00     0.006 C 
HETATM    3  C   UNL     1     -40.227 -46.838  11.322  1.00  0.00     0.026 C 
HETATM    4  C   UNL     1     -40.979 -45.647  11.910  1.00  0.00     0.126 C 
HETATM    5  N   UNL     1     -42.047 -45.200  11.013  1.00  0.00    -0.344 N 
HETATM    6  C   UNL     1     -42.408 -43.866  10.772  1.00  0.00     0.327 C 
HETATM    7  C   UNL     1     -42.980 -46.250  10.595  1.00  0.00     0.126 C 
HETATM    8  O   UNL     1     -43.395 -43.626  10.056  1.00  0.00    -0.263 OA
HETATM    9  C   UNL     1     -42.252 -47.457   9.999  1.00  0.00     0.026 C 
BRANCH   6  10
HETATM   10  C   UNL     1     -41.577 -42.673  11.322  1.00  0.00     0.472 C 
HETATM   11  F   UNL     1     -41.632 -42.468  12.665  1.00  0.00    -0.162 F 
HETATM   12  F   UNL     1     -41.975 -41.488  10.768  1.00  0.00    -0.162 F 
HETATM   13  F   UNL     1     -40.253 -42.802  11.016  1.00  0.00    -0.162 F 
ENDBRANCH   6  10
ENDBRANCH   1   2
BRANCH   1  14
HETATM   14  N   UNL     1     -42.121 -50.120  11.793  1.00  0.00    -0.342 N 
HETATM   15  C   UNL     1     -42.806 -50.880  12.713  1.00  0.00     0.320 C 
HETATM   16  O   UNL     1     -43.077 -50.459  13.832  1.00  0.00    -0.247 OA
HETATM   17  N   UNL     1     -43.103 -52.136  12.240  1.00  0.00    -0.308 N 
HETATM   18  H   UNL     1     -42.507 -52.483  11.497  1.00  0.00     0.170 HD
HETATM   19  H   UNL     1     -42.243 -50.355  10.819  1.00  0.00     0.164 HD
BRANCH  17  20
HETATM   20  C   UNL     1     -43.905 -53.076  12.927  1.00  0.00     0.051 A 
HETATM   21  C   UNL     1     -43.380 -54.081  13.738  1.00  0.00     0.032 A 
HETATM   22  C   UNL     1     -44.227 -54.995  14.360  1.00  0.00     0.019 A 
HETATM   23  C   UNL     1     -45.589 -54.864  14.165  1.00  0.00     0.088 A 
HETATM   24  N   UNL     1     -46.146 -53.887  13.415  1.00  0.00    -0.373 N 
HETATM   25  C   UNL     1     -45.292 -53.018  12.820  1.00  0.00     0.117 A 
ATOM     26  HN  UNL     1     -47.157 -53.809  13.302  1.00  0.00     0.164 HD
ENDBRANCH  17  20
ENDBRANCH   1  14
TORSDOF 4
ENDMDL
MODEL 4
REMARK VINA RESULT:      -6.4      1.703      2.077
REMARK  4 active torsions:
REMARK  status: ('A' for Active; 'I' for Inactive)
REMARK    1  A    between atoms: C_2  and  C_5 
REMARK       I    between atoms: C_5  and  N_7 
REMARK    2  A    between atoms: C_10  and  C_11 
REMARK    3  A    between atoms: C_11  and  N_12 
REMARK       I    between atoms: N_12  and  C_13 
REMARK       I    between atoms: C_13  and  N_15 
REMARK    4  A    between atoms: N_15  and  C_16 
ROOT
HETATM    1  C   UNL     1     -40.322 -51.659  13.027  1.00  0.00     0.129 C 
ENDROOT
BRANCH   1   2
HETATM    2  C   UNL     1     -40.611 -53.127  12.679  1.00  0.00     0.006 C 
HETATM    3  C   UNL     1     -41.959 -53.348  11.977  1.00  0.00     0.026 C 
HETATM    4  C   UNL     1     -43.158 -53.150  12.901  1.00  0.00     0.126 C 
HETATM    5  N   UNL     1     -43.040 -53.974  14.105  1.00  0.00    -0.344 N 
HETATM    6  C   UNL     1     -44.094 -54.647  14.743  1.00  0.00     0.327 C 
HETATM    7  C   UNL     1     -41.784 -53.813  14.842  1.00  0.00     0.126 C 
HETATM    8  O   UNL     1     -43.874 -55.240  15.813  1.00  0.00    -0.263 OA
HETATM    9  C   UNL     1     -40.563 -54.008  13.939  1.00  0.00     0.026 C 
BRANCH   6  10
HETATM   10  C   UNL     1     -45.518 -54.726  14.123  1.00  0.00     0.472 C 
HETATM   11  F   UNL     1     -45.788 -53.852  13.118  1.00  0.00    -0.162 F 
HETATM   12  F   UNL     1     -46.485 -54.494  15.061  1.00  0.00    -0.162 F 
HETATM   13  F   UNL     1     -45.776 -55.969  13.621  1.00  0.00    -0.162 F 
ENDBRANCH   6  10
ENDBRANCH   1   2
BRANCH   1  14
HETATM   14  N   UNL     1     -40.308 -50.798  11.857  1.00  0.00    -0.342 N 
HETATM   15  C   UNL     1     -41.207 -49.760  11.764  1.00  0.00     0.320 C 
HETATM   16  O   UNL     1     -42.066 -49.566  12.616  1.00  0.00    -0.247 OA
HETATM   17  N   UNL     1     -41.040 -49.022  10.617  1.00  0.00    -0.308 N 
HETATM   18  H   UNL     1     -40.588 -49.497   9.844  1.00  0.00     0.170 HD
HETATM   19  H   UNL     1     -39.436 -50.698  11.357  1.00  0.00     0.164 HD
BRANCH  17  20
HETATM   20  C   UNL     1     -41.743 -47.830  10.328  1.00  0.00     0.051 A 
HETATM   21  C   UNL     1     -42.939 -47.802   9.613  1.00  0.00     0.032 A 
HETATM   22  C   UNL     1     -43.563 -46.588   9.336  1.00  0.00     0.019 A 
HETATM   23  C   UNL     1     -42.976 -45.427   9.803  1.00  0.00     0.088 A 
HETATM   24  N   UNL     1     -41.835 -45.406  10.529  1.00  0.00    -0.373 N 
HETATM   25  C   UNL     1     -41.251 -46.606  10.776  1.00  0.00     0.117 A 
ATOM     26  HN  UNL     1     -41.433 -44.534  10.872  1.00  0.00     0.164 HD
ENDBRANCH  17  20
ENDBRANCH   1  14
TORSDOF 4
ENDMDL
MODEL 5
REMARK VINA RESULT:      -6.2      2.033      2.469
REMARK  4 active torsions:
REMARK  status: ('A' for Active; 'I' for Inactive)
REMARK    1  A    between atoms: C_2  and  C_5 
REMARK       I    between atoms: C_5  and  N_7 
REMARK    2  A    between atoms: C_10  and  C_11 
REMARK    3  A    between atoms: C_11  and  N_12 
REMARK       I    between atoms: N_12  and  C_13 
REMARK       I    between atoms: C_13  and  N_15 
REMARK    4  A    between atoms: N_15  and  C_16 
ROOT
HETATM    1  C   UNL     1     -39.389 -52.440  14.232  1.00  0.00     0.129 C 
ENDROOT
BRANCH   1   2
HETATM    2  C   UNL     1     -39.768 -53.910  13.992  1.00  0.00     0.006 C 
HETATM    3  C   UNL     1     -40.791 -54.114  12.865  1.00  0.00     0.026 C 
HETATM    4  C   UNL     1     -42.193 -53.633  13.229  1.00  0.00     0.126 C 
HETATM    5  N   UNL     1     -42.650 -54.234  14.483  1.00  0.00    -0.344 N 
HETATM    6  C   UNL     1     -43.956 -54.669  14.753  1.00  0.00     0.327 C 
HETATM    7  C   UNL     1     -41.733 -54.071  15.615  1.00  0.00     0.126 C 
HETATM    8  O   UNL     1     -44.235 -55.079  15.893  1.00  0.00    -0.263 OA
HETATM    9  C   UNL     1     -40.319 -54.549  15.278  1.00  0.00     0.026 C 
BRANCH   6  10
HETATM   10  C   UNL     1     -45.056 -54.714  13.654  1.00  0.00     0.472 C 
HETATM   11  F   UNL     1     -44.628 -54.597  12.368  1.00  0.00    -0.162 F 
HETATM   12  F   UNL     1     -45.965 -53.706  13.816  1.00  0.00    -0.162 F 
HETATM   13  F   UNL     1     -45.771 -55.875  13.709  1.00  0.00    -0.162 F 
ENDBRANCH   6  10
ENDBRANCH   1   2
BRANCH   1  14
HETATM   14  N   UNL     1     -39.328 -51.669  13.001  1.00  0.00    -0.342 N 
HETATM   15  C   UNL     1     -40.052 -50.504  12.891  1.00  0.00     0.320 C 
HETATM   16  O   UNL     1     -40.800 -50.116  13.781  1.00  0.00    -0.247 OA
HETATM   17  N   UNL     1     -39.859 -49.878  11.682  1.00  0.00    -0.308 N 
HETATM   18  H   UNL     1     -39.552 -50.471  10.920  1.00  0.00     0.170 HD
HETATM   19  H   UNL     1     -38.494 -51.748  12.438  1.00  0.00     0.164 HD
BRANCH  17  20
HETATM   20  C   UNL     1     -40.381 -48.607  11.352  1.00  0.00     0.051 A 
HETATM   21  C   UNL     1     -39.763 -47.410  11.713  1.00  0.00     0.032 A 
HETATM   22  C   UNL     1     -40.349 -46.191  11.383  1.00  0.00     0.019 A 
HETATM   23  C   UNL     1     -41.538 -46.204  10.678  1.00  0.00     0.088 A 
HETATM   24  N   UNL     1     -42.157 -47.337  10.278  1.00  0.00    -0.373 N 
HETATM   25  C   UNL     1     -41.562 -48.507  10.621  1.00  0.00     0.117 A 
ATOM     26  HN  UNL     1     -43.027 -47.314   9.746  1.00  0.00     0.164 HD
ENDBRANCH  17  20
ENDBRANCH   1  14
TORSDOF 4
ENDMDL
MODEL 6
REMARK VINA RESULT:      -6.1      4.046      4.733
REMARK  4 active torsions:
REMARK  status: ('A' for Active; 'I' for Inactive)
REMARK    1  A    between atoms: C_2  and  C_5 
REMARK       I    between atoms: C_5  and  N_7 
REMARK    2  A    between atoms: C_10  and  C_11 
REMARK    3  A    between atoms: C_11  and  N_12 
REMARK       I    between atoms: N_12  and  C_13 
REMARK       I    between atoms: C_13  and  N_15 
REMARK    4  A    between atoms: N_15  and  C_16 
ROOT
HETATM    1  C   UNL     1     -42.436 -52.166  13.594  1.00  0.00     0.129 C 
ENDROOT
BRANCH   1   2
HETATM    2  C   UNL     1     -42.301 -53.661  13.265  1.00  0.00     0.006 C 
HETATM    3  C   UNL     1     -42.750 -54.593  14.400  1.00  0.00     0.026 C 
HETATM    4  C   UNL     1     -41.796 -54.592  15.592  1.00  0.00     0.126 C 
HETATM    5  N   UNL     1     -40.424 -54.881  15.173  1.00  0.00    -0.344 N 
HETATM    6  C   UNL     1     -39.502 -55.669  15.879  1.00  0.00     0.327 C 
HETATM    7  C   UNL     1     -39.914 -54.025  14.099  1.00  0.00     0.126 C 
HETATM    8  O   UNL     1     -38.336 -55.761  15.457  1.00  0.00    -0.263 OA
HETATM    9  C   UNL     1     -40.850 -54.008  12.888  1.00  0.00     0.026 C 
BRANCH   6  10
HETATM   10  C   UNL     1     -39.906 -56.482  17.141  1.00  0.00     0.472 C 
HETATM   11  F   UNL     1     -40.353 -55.762  18.205  1.00  0.00    -0.162 F 
HETATM   12  F   UNL     1     -38.854 -57.208  17.625  1.00  0.00    -0.162 F 
HETATM   13  F   UNL     1     -40.887 -57.388  16.860  1.00  0.00    -0.162 F 
ENDBRANCH   6  10
ENDBRANCH   1   2
BRANCH   1  14
HETATM   14  N   UNL     1     -42.495 -51.334  12.404  1.00  0.00    -0.342 N 
HETATM   15  C   UNL     1     -42.245 -49.984  12.504  1.00  0.00     0.320 C 
HETATM   16  O   UNL     1     -42.026 -49.441  13.580  1.00  0.00    -0.247 OA
HETATM   17  N   UNL     1     -42.306 -49.347  11.287  1.00  0.00    -0.308 N 
HETATM   18  H   UNL     1     -42.861 -49.806  10.573  1.00  0.00     0.170 HD
HETATM   19  H   UNL     1     -42.309 -51.773  11.514  1.00  0.00     0.164 HD
BRANCH  17  20
HETATM   20  C   UNL     1     -41.970 -47.990  11.081  1.00  0.00     0.051 A 
HETATM   21  C   UNL     1     -42.898 -46.952  11.164  1.00  0.00     0.032 A 
HETATM   22  C   UNL     1     -42.505 -45.639  10.918  1.00  0.00     0.019 A 
HETATM   23  C   UNL     1     -41.178 -45.398  10.612  1.00  0.00     0.088 A 
HETATM   24  N   UNL     1     -40.237 -46.366  10.552  1.00  0.00    -0.373 N 
HETATM   25  C   UNL     1     -40.655 -47.634  10.792  1.00  0.00     0.117 A 
ATOM     26  HN  UNL     1     -39.262 -46.155  10.337  1.00  0.00     0.164 HD
ENDBRANCH  17  20
ENDBRANCH   1  14
TORSDOF 4
ENDMDL
MODEL 7
REMARK VINA RESULT:      -5.8      1.452      2.044
REMARK  4 active torsions:
REMARK  status: ('A' for Active; 'I' for Inactive)
REMARK    1  A    between atoms: C_2  and  C_5 
REMARK       I    between atoms: C_5  and  N_7 
REMARK    2  A    between atoms: C_10  and  C_11 
REMARK    3  A    between atoms: C_11  and  N_12 
REMARK       I    between atoms: N_12  and  C_13 
REMARK       I    between atoms: C_13  and  N_15 
REMARK    4  A    between atoms: N_15  and  C_16 
ROOT
HETATM    1  C   UNL     1     -42.631 -52.037  13.127  1.00  0.00     0.129 C 
ENDROOT
BRANCH   1   2
HETATM    2  C   UNL     1     -44.041 -52.631  12.992  1.00  0.00     0.006 C 
HETATM    3  C   UNL     1     -45.170 -51.626  13.259  1.00  0.00     0.026 C 
HETATM    4  C   UNL     1     -45.290 -51.231  14.728  1.00  0.00     0.126 C 
HETATM    5  N   UNL     1     -45.411 -52.411  15.586  1.00  0.00    -0.344 N 
HETATM    6  C   UNL     1     -46.232 -52.519  16.718  1.00  0.00     0.327 C 
HETATM    7  C   UNL     1     -44.361 -53.417  15.401  1.00  0.00     0.126 C 
HETATM    8  O   UNL     1     -46.173 -53.548  17.413  1.00  0.00    -0.263 OA
HETATM    9  C   UNL     1     -44.221 -53.834  13.935  1.00  0.00     0.026 C 
BRANCH   6  10
HETATM   10  C   UNL     1     -47.261 -51.418  17.100  1.00  0.00     0.472 C 
HETATM   11  F   UNL     1     -48.131 -51.726  18.099  1.00  0.00    -0.162 F 
HETATM   12  F   UNL     1     -48.051 -51.082  16.037  1.00  0.00    -0.162 F 
HETATM   13  F   UNL     1     -46.641 -50.265  17.484  1.00  0.00    -0.162 F 
ENDBRANCH   6  10
ENDBRANCH   1   2
BRANCH   1  14
HETATM   14  N   UNL     1     -42.258 -51.215  11.988  1.00  0.00    -0.342 N 
HETATM   15  C   UNL     1     -42.197 -49.847  12.126  1.00  0.00     0.320 C 
HETATM   16  O   UNL     1     -42.502 -49.285  13.171  1.00  0.00    -0.247 OA
HETATM   17  N   UNL     1     -41.796 -49.220  10.970  1.00  0.00    -0.308 N 
HETATM   18  H   UNL     1     -41.954 -49.732  10.109  1.00  0.00     0.170 HD
HETATM   19  H   UNL     1     -41.674 -51.634  11.278  1.00  0.00     0.164 HD
BRANCH  17  20
HETATM   20  C   UNL     1     -41.529 -47.836  10.867  1.00  0.00     0.051 A 
HETATM   21  C   UNL     1     -42.470 -46.907  10.425  1.00  0.00     0.032 A 
HETATM   22  C   UNL     1     -42.130 -45.561  10.317  1.00  0.00     0.019 A 
HETATM   23  C   UNL     1     -40.851 -45.177  10.675  1.00  0.00     0.088 A 
HETATM   24  N   UNL     1     -39.915 -46.035  11.140  1.00  0.00    -0.373 N 
HETATM   25  C   UNL     1     -40.279 -47.339  11.228  1.00  0.00     0.117 A 
ATOM     26  HN  UNL     1     -38.984 -45.719  11.411  1.00  0.00     0.164 HD
ENDBRANCH  17  20
ENDBRANCH   1  14
TORSDOF 4
ENDMDL
MODEL 8
REMARK VINA RESULT:      -5.8      4.653      7.926
REMARK  4 active torsions:
REMARK  status: ('A' for Active; 'I' for Inactive)
REMARK    1  A    between atoms: C_2  and  C_5 
REMARK       I    between atoms: C_5  and  N_7 
REMARK    2  A    between atoms: C_10  and  C_11 
REMARK    3  A    between atoms: C_11  and  N_12 
REMARK       I    between atoms: N_12  and  C_13 
REMARK       I    between atoms: C_13  and  N_15 
REMARK    4  A    between atoms: N_15  and  C_16 
ROOT
HETATM    1  C   UNL     1     -38.345 -50.129  14.949  1.00  0.00     0.129 C 
ENDROOT
BRANCH   1   2
HETATM    2  C   UNL     1     -37.493 -49.293  13.981  1.00  0.00     0.006 C 
HETATM    3  C   UNL     1     -37.327 -47.826  14.403  1.00  0.00     0.026 C 
HETATM    4  C   UNL     1     -38.607 -47.008  14.255  1.00  0.00     0.126 C 
HETATM    5  N   UNL     1     -39.151 -47.118  12.901  1.00  0.00    -0.344 N 
HETATM    6  C   UNL     1     -39.745 -46.076  12.171  1.00  0.00     0.327 C 
HETATM    7  C   UNL     1     -39.352 -48.489  12.425  1.00  0.00     0.126 C 
HETATM    8  O   UNL     1     -40.250 -46.324  11.063  1.00  0.00    -0.263 OA
HETATM    9  C   UNL     1     -38.082 -49.333  12.561  1.00  0.00     0.026 C 
BRANCH   6  10
HETATM   10  C   UNL     1     -39.738 -44.605  12.676  1.00  0.00     0.472 C 
HETATM   11  F   UNL     1     -38.527 -44.094  13.026  1.00  0.00    -0.162 F 
HETATM   12  F   UNL     1     -40.519 -44.455  13.788  1.00  0.00    -0.162 F 
HETATM   13  F   UNL     1     -40.251 -43.753  11.742  1.00  0.00    -0.162 F 
ENDBRANCH   6  10
ENDBRANCH   1   2
BRANCH   1  14
HETATM   14  N   UNL     1     -38.851 -51.348  14.340  1.00  0.00    -0.342 N 
HETATM   15  C   UNL     1     -40.203 -51.604  14.352  1.00  0.00     0.320 C 
HETATM   16  O   UNL     1     -41.001 -50.862  14.912  1.00  0.00    -0.247 OA
HETATM   17  N   UNL     1     -40.521 -52.776  13.708  1.00  0.00    -0.308 N 
HETATM   18  H   UNL     1     -39.778 -53.463  13.643  1.00  0.00     0.170 HD
HETATM   19  H   UNL     1     -38.310 -51.760  13.594  1.00  0.00     0.164 HD
BRANCH  17  20
HETATM   20  C   UNL     1     -41.841 -53.218  13.463  1.00  0.00     0.051 A 
HETATM   21  C   UNL     1     -42.518 -54.104  14.300  1.00  0.00     0.032 A 
HETATM   22  C   UNL     1     -43.807 -54.523  13.982  1.00  0.00     0.019 A 
HETATM   23  C   UNL     1     -44.395 -54.024  12.835  1.00  0.00     0.088 A 
HETATM   24  N   UNL     1     -43.792 -53.138  12.011  1.00  0.00    -0.373 N 
HETATM   25  C   UNL     1     -42.535 -52.755  12.348  1.00  0.00     0.117 A 
ATOM     26  HN  UNL     1     -44.258 -52.776  11.178  1.00  0.00     0.164 HD
ENDBRANCH  17  20
ENDBRANCH   1  14
TORSDOF 4
ENDMDL
MODEL 9
REMARK VINA RESULT:      -5.6      2.394      2.921
REMARK  4 active torsions:
REMARK  status: ('A' for Active; 'I' for Inactive)
REMARK    1  A    between atoms: C_2  and  C_5 
REMARK       I    between atoms: C_5  and  N_7 
REMARK    2  A    between atoms: C_10  and  C_11 
REMARK    3  A    between atoms: C_11  and  N_12 
REMARK       I    between atoms: N_12  and  C_13 
REMARK       I    between atoms: C_13  and  N_15 
REMARK    4  A    between atoms: N_15  and  C_16 
ROOT
HETATM    1  C   UNL     1     -39.947 -51.422  13.923  1.00  0.00     0.129 C 
ENDROOT
BRANCH   1   2
HETATM    2  C   UNL     1     -40.284 -52.601  12.998  1.00  0.00     0.006 C 
HETATM    3  C   UNL     1     -41.664 -52.498  12.333  1.00  0.00     0.026 C 
HETATM    4  C   UNL     1     -42.820 -52.708  13.308  1.00  0.00     0.126 C 
HETATM    5  N   UNL     1     -42.672 -53.966  14.041  1.00  0.00    -0.344 N 
HETATM    6  C   UNL     1     -43.714 -54.842  14.381  1.00  0.00     0.327 C 
HETATM    7  C   UNL     1     -41.383 -54.138  14.717  1.00  0.00     0.126 C 
HETATM    8  O   UNL     1     -43.464 -55.835  15.087  1.00  0.00    -0.263 OA
HETATM    9  C   UNL     1     -40.205 -53.935  13.762  1.00  0.00     0.026 C 
BRANCH   6  10
HETATM   10  C   UNL     1     -45.163 -54.646  13.854  1.00  0.00     0.472 C 
HETATM   11  F   UNL     1     -45.973 -55.738  13.897  1.00  0.00    -0.162 F 
HETATM   12  F   UNL     1     -45.169 -54.255  12.544  1.00  0.00    -0.162 F 
HETATM   13  F   UNL     1     -45.817 -53.665  14.540  1.00  0.00    -0.162 F 
ENDBRANCH   6  10
ENDBRANCH   1   2
BRANCH   1  14
HETATM   14  N   UNL     1     -40.692 -50.219  13.592  1.00  0.00    -0.342 N 
HETATM   15  C   UNL     1     -40.017 -49.085  13.202  1.00  0.00     0.320 C 
HETATM   16  O   UNL     1     -38.793 -49.033  13.176  1.00  0.00    -0.247 OA
HETATM   17  N   UNL     1     -40.866 -48.049  12.891  1.00  0.00    -0.308 N 
HETATM   18  H   UNL     1     -41.786 -48.087  13.315  1.00  0.00     0.170 HD
HETATM   19  H   UNL     1     -41.639 -50.330  13.258  1.00  0.00     0.164 HD
BRANCH  17  20
HETATM   20  C   UNL     1     -40.449 -46.814  12.345  1.00  0.00     0.051 A 
HETATM   21  C   UNL     1     -40.291 -46.598  10.977  1.00  0.00     0.032 A 
HETATM   22  C   UNL     1     -39.845 -45.365  10.508  1.00  0.00     0.019 A 
HETATM   23  C   UNL     1     -39.585 -44.368  11.430  1.00  0.00     0.088 A 
HETATM   24  N   UNL     1     -39.754 -44.520  12.763  1.00  0.00    -0.373 N 
HETATM   25  C   UNL     1     -40.185 -45.735  13.185  1.00  0.00     0.117 A 
ATOM     26  HN  UNL     1     -39.567 -43.760  13.418  1.00  0.00     0.164 HD
ENDBRANCH  17  20
ENDBRANCH   1  14
TORSDOF 4
ENDMDL
