MODEL 1
REMARK VINA RESULT:      -6.0      0.000      0.000
REMARK  5 active torsions:
REMARK  status: ('A' for Active; 'I' for Inactive)
REMARK    1  A    between atoms: C_8  and  C_9 
REMARK    2  A    between atoms: C_9  and  C_10 
REMARK       I    between atoms: C_10  and  N_12 
REMARK    3  A    between atoms: N_12  and  C_13 
REMARK    4  A    between atoms: C_13  and  C_19 
REMARK    5  A    between atoms: C_19  and  N_20 
ROOT
HETATM    1  C   UNL     1     -43.683 -51.058  13.441  1.00  0.00     0.223 C 
HETATM    2  O   UNL     1     -43.477 -52.039  12.732  1.00  0.00    -0.273 OA
HETATM    3  N   UNL     1     -44.851 -50.884  14.154  1.00  0.00    -0.340 N 
HETATM    4  H   UNL     1     -44.833 -50.215  14.915  1.00  0.00     0.164 HD
ENDROOT
BRANCH   3   5
HETATM    5  C   UNL     1     -46.001 -51.827  14.087  1.00  0.00     0.104 C 
HETATM    6  C   UNL     1     -47.138 -51.412  15.043  1.00  0.00     0.045 C 
HETATM    7  C   UNL     1     -46.677 -51.427  16.506  1.00  0.00     0.004 C 
HETATM    8  C   UNL     1     -46.156 -52.801  16.917  1.00  0.00     0.000 C 
HETATM    9  C   UNL     1     -45.077 -53.319  15.974  1.00  0.00     0.004 C 
HETATM   10  C   UNL     1     -45.506 -53.239  14.509  1.00  0.00     0.045 C 
BRANCH   5  11
HETATM   11  C   UNL     1     -46.485 -51.961  12.653  1.00  0.00    -0.046 C 
BRANCH  11  12
HETATM   12  N   UNL     1     -46.887 -52.072  11.462  1.00  0.00    -0.367 N 
ATOM     13  HN2 UNL     1     -46.589 -51.975  12.433  1.00  0.00     0.165 HD
ATOM     14  HN1 UNL     1     -47.210 -52.162  10.499  1.00  0.00     0.165 HD
ENDBRANCH  11  12
ENDBRANCH   5  11
ENDBRANCH   3   5
BRANCH   1  15
HETATM   15  C   UNL     1     -42.690 -49.910  13.528  1.00  0.00     0.146 C 
BRANCH  15  16
HETATM   16  C   UNL     1     -41.914 -49.620  12.287  1.00  0.00     0.006 A 
HETATM   17  C   UNL     1     -40.752 -50.245  11.743  1.00  0.00     0.038 A 
HETATM   18  C   UNL     1     -39.947 -51.376  12.266  1.00  0.00     0.071 C 
HETATM   19  N   UNL     1     -40.401 -49.689  10.577  1.00  0.00    -0.265 N 
HETATM   20  O   UNL     1     -41.345 -48.727  10.311  1.00  0.00    -0.242 OA
ATOM     21  HN  UNL     1     -39.594 -49.931  10.001  1.00  0.00     0.194 HD
HETATM   22  C   UNL     1     -42.253 -48.692  11.317  1.00  0.00     0.081 A 
HETATM   23  C   UNL     1     -43.367 -47.738  11.139  1.00  0.00     0.079 C 
ENDBRANCH  15  16
ENDBRANCH   1  15
TORSDOF 5
ENDMDL
MODEL 2
REMARK VINA RESULT:      -6.0      2.353      6.106
REMARK  5 active torsions:
REMARK  status: ('A' for Active; 'I' for Inactive)
REMARK    1  A    between atoms: C_8  and  C_9 
REMARK    2  A    between atoms: C_9  and  C_10 
REMARK       I    between atoms: C_10  and  N_12 
REMARK    3  A    between atoms: N_12  and  C_13 
REMARK    4  A    between atoms: C_13  and  C_19 
REMARK    5  A    between atoms: C_19  and  N_20 
ROOT
HETATM    1  C   UNL     1     -42.629 -49.611  13.076  1.00  0.00     0.223 C 
HETATM    2  O   UNL     1     -43.235 -48.698  12.522  1.00  0.00    -0.273 OA
HETATM    3  N   UNL     1     -41.276 -49.819  12.909  1.00  0.00    -0.340 N 
HETATM    4  H   UNL     1     -40.807 -50.394  13.598  1.00  0.00     0.164 HD
ENDROOT
BRANCH   3   5
HETATM    5  C   UNL     1     -40.428 -49.005  11.995  1.00  0.00     0.104 C 
HETATM    6  C   UNL     1     -39.108 -49.723  11.648  1.00  0.00     0.045 C 
HETATM    7  C   UNL     1     -38.253 -49.962  12.898  1.00  0.00     0.004 C 
HETATM    8  C   UNL     1     -37.936 -48.657  13.623  1.00  0.00     0.000 C 
HETATM    9  C   UNL     1     -39.189 -47.848  13.935  1.00  0.00     0.004 C 
HETATM   10  C   UNL     1     -40.079 -47.667  12.705  1.00  0.00     0.045 C 
BRANCH   5  11
HETATM   11  C   UNL     1     -41.214 -48.628  10.750  1.00  0.00    -0.046 C 
BRANCH  11  12
HETATM   12  N   UNL     1     -41.866 -48.315   9.716  1.00  0.00    -0.367 N 
ATOM     13  HN2 UNL     1     -41.360 -48.558  10.568  1.00  0.00     0.165 HD
ATOM     14  HN1 UNL     1     -42.393 -48.062   8.880  1.00  0.00     0.165 HD
ENDBRANCH  11  12
ENDBRANCH   5  11
ENDBRANCH   3   5
BRANCH   1  15
HETATM   15  C   UNL     1     -43.344 -50.640  13.937  1.00  0.00     0.146 C 
BRANCH  15  16
HETATM   16  C   UNL     1     -43.805 -51.873  13.236  1.00  0.00     0.006 A 
HETATM   17  C   UNL     1     -43.083 -53.019  12.785  1.00  0.00     0.038 A 
HETATM   18  C   UNL     1     -41.632 -53.322  12.867  1.00  0.00     0.071 C 
HETATM   19  N   UNL     1     -43.899 -53.923  12.230  1.00  0.00    -0.265 N 
HETATM   20  O   UNL     1     -45.170 -53.414  12.347  1.00  0.00    -0.242 OA
ATOM     21  HN  UNL     1     -43.631 -54.812  11.806  1.00  0.00     0.194 HD
HETATM   22  C   UNL     1     -45.120 -52.204  12.956  1.00  0.00     0.081 A 
HETATM   23  C   UNL     1     -46.426 -51.559  13.202  1.00  0.00     0.079 C 
ENDBRANCH  15  16
ENDBRANCH   1  15
TORSDOF 5
ENDMDL
MODEL 3
REMARK VINA RESULT:      -5.9      2.398      6.044
REMARK  5 active torsions:
REMARK  status: ('A' for Active; 'I' for Inactive)
REMARK    1  A    between atoms: C_8  and  C_9 
REMARK    2  A    between atoms: C_9  and  C_10 
REMARK       I    between atoms: C_10  and  N_12 
REMARK    3  A    between atoms: N_12  and  C_13 
REMARK    4  A    between atoms: C_13  and  C_19 
REMARK    5  A    between atoms: C_19  and  N_20 
ROOT
HETATM    1  C   UNL     1     -42.274 -50.181  13.202  1.00  0.00     0.223 C 
HETATM    2  O   UNL     1     -41.152 -50.297  13.687  1.00  0.00    -0.273 OA
HETATM    3  N   UNL     1     -42.531 -49.409  12.089  1.00  0.00    -0.340 N 
HETATM    4  H   UNL     1     -43.396 -49.585  11.592  1.00  0.00     0.164 HD
ENDROOT
BRANCH   3   5
HETATM    5  C   UNL     1     -41.495 -48.588  11.404  1.00  0.00     0.104 C 
HETATM    6  C   UNL     1     -41.164 -47.306  12.196  1.00  0.00     0.045 C 
HETATM    7  C   UNL     1     -42.390 -46.395  12.329  1.00  0.00     0.004 C 
HETATM    8  C   UNL     1     -42.954 -46.007  10.965  1.00  0.00     0.000 C 
HETATM    9  C   UNL     1     -43.238 -47.220  10.088  1.00  0.00     0.004 C 
HETATM   10  C   UNL     1     -42.041 -48.167  10.010  1.00  0.00     0.045 C 
BRANCH   5  11
HETATM   11  C   UNL     1     -40.256 -49.426  11.136  1.00  0.00    -0.046 C 
BRANCH  11  12
HETATM   12  N   UNL     1     -39.227 -50.121  10.914  1.00  0.00    -0.367 N 
ATOM     13  HN2 UNL     1     -40.042 -49.538  11.103  1.00  0.00     0.165 HD
ATOM     14  HN1 UNL     1     -38.396 -50.684  10.734  1.00  0.00     0.165 HD
ENDBRANCH  11  12
ENDBRANCH   5  11
ENDBRANCH   3   5
BRANCH   1  15
HETATM   15  C   UNL     1     -43.493 -50.826  13.843  1.00  0.00     0.146 C 
BRANCH  15  16
HETATM   16  C   UNL     1     -43.971 -52.091  13.213  1.00  0.00     0.006 A 
HETATM   17  C   UNL     1     -43.294 -53.319  12.951  1.00  0.00     0.038 A 
HETATM   18  C   UNL     1     -41.886 -53.705  13.217  1.00  0.00     0.071 C 
HETATM   19  N   UNL     1     -44.115 -54.221  12.398  1.00  0.00    -0.265 N 
HETATM   20  O   UNL     1     -45.350 -53.622  12.329  1.00  0.00    -0.242 OA
ATOM     21  HN  UNL     1     -43.873 -55.163  12.089  1.00  0.00     0.194 HD
HETATM   22  C   UNL     1     -45.272 -52.363  12.824  1.00  0.00     0.081 A 
HETATM   23  C   UNL     1     -46.545 -51.613  12.867  1.00  0.00     0.079 C 
ENDBRANCH  15  16
ENDBRANCH   1  15
TORSDOF 5
ENDMDL
MODEL 4
REMARK VINA RESULT:      -5.8      3.315      6.886
REMARK  5 active torsions:
REMARK  status: ('A' for Active; 'I' for Inactive)
REMARK    1  A    between atoms: C_8  and  C_9 
REMARK    2  A    between atoms: C_9  and  C_10 
REMARK       I    between atoms: C_10  and  N_12 
REMARK    3  A    between atoms: N_12  and  C_13 
REMARK    4  A    between atoms: C_13  and  C_19 
REMARK    5  A    between atoms: C_19  and  N_20 
ROOT
HETATM    1  C   UNL     1     -41.497 -51.958  12.441  1.00  0.00     0.223 C 
HETATM    2  O   UNL     1     -42.376 -51.108  12.551  1.00  0.00    -0.273 OA
HETATM    3  N   UNL     1     -40.170 -51.639  12.241  1.00  0.00    -0.340 N 
HETATM    4  H   UNL     1     -39.486 -52.359  12.441  1.00  0.00     0.164 HD
ENDROOT
BRANCH   3   5
HETATM    5  C   UNL     1     -39.679 -50.244  12.073  1.00  0.00     0.104 C 
HETATM    6  C   UNL     1     -38.194 -50.207  11.655  1.00  0.00     0.045 C 
HETATM    7  C   UNL     1     -37.293 -50.835  12.725  1.00  0.00     0.004 C 
HETATM    8  C   UNL     1     -37.449 -50.137  14.073  1.00  0.00     0.000 C 
HETATM    9  C   UNL     1     -38.904 -50.064  14.523  1.00  0.00     0.004 C 
HETATM   10  C   UNL     1     -39.816 -49.504  13.433  1.00  0.00     0.045 C 
BRANCH   5  11
HETATM   11  C   UNL     1     -40.563 -49.492  11.093  1.00  0.00    -0.046 C 
BRANCH  11  12
HETATM   12  N   UNL     1     -41.298 -48.868  10.279  1.00  0.00    -0.367 N 
ATOM     13  HN2 UNL     1     -40.709 -49.397  10.922  1.00  0.00     0.165 HD
ATOM     14  HN1 UNL     1     -41.893 -48.363   9.622  1.00  0.00     0.165 HD
ENDBRANCH  11  12
ENDBRANCH   5  11
ENDBRANCH   3   5
BRANCH   1  15
HETATM   15  C   UNL     1     -41.817 -53.445  12.440  1.00  0.00     0.146 C 
BRANCH  15  16
HETATM   16  C   UNL     1     -41.816 -54.115  13.773  1.00  0.00     0.006 A 
HETATM   17  C   UNL     1     -42.883 -54.672  14.540  1.00  0.00     0.038 A 
HETATM   18  C   UNL     1     -44.335 -54.738  14.243  1.00  0.00     0.071 C 
HETATM   19  N   UNL     1     -42.432 -55.216  15.678  1.00  0.00    -0.265 N 
HETATM   20  O   UNL     1     -41.066 -55.069  15.658  1.00  0.00    -0.242 OA
ATOM     21  HN  UNL     1     -42.991 -55.652  16.412  1.00  0.00     0.194 HD
HETATM   22  C   UNL     1     -40.695 -54.428  14.522  1.00  0.00     0.081 A 
HETATM   23  C   UNL     1     -39.241 -54.250  14.336  1.00  0.00     0.079 C 
ENDBRANCH  15  16
ENDBRANCH   1  15
TORSDOF 5
ENDMDL
MODEL 5
REMARK VINA RESULT:      -5.8      3.151      3.878
REMARK  5 active torsions:
REMARK  status: ('A' for Active; 'I' for Inactive)
REMARK    1  A    between atoms: C_8  and  C_9 
REMARK    2  A    between atoms: C_9  and  C_10 
REMARK       I    between atoms: C_10  and  N_12 
REMARK    3  A    between atoms: N_12  and  C_13 
REMARK    4  A    between atoms: C_13  and  C_19 
REMARK    5  A    between atoms: C_19  and  N_20 
ROOT
HETATM    1  C   UNL     1     -43.881 -53.605  12.977  1.00  0.00     0.223 C 
HETATM    2  O   UNL     1     -44.567 -54.433  12.384  1.00  0.00    -0.273 OA
HETATM    3  N   UNL     1     -44.426 -52.588  13.734  1.00  0.00    -0.340 N 
HETATM    4  H   UNL     1     -43.817 -52.133  14.405  1.00  0.00     0.164 HD
ENDROOT
BRANCH   3   5
HETATM    5  C   UNL     1     -45.890 -52.352  13.857  1.00  0.00     0.104 C 
HETATM    6  C   UNL     1     -46.202 -51.161  14.787  1.00  0.00     0.045 C 
HETATM    7  C   UNL     1     -45.706 -51.418  16.215  1.00  0.00     0.004 C 
HETATM    8  C   UNL     1     -46.318 -52.686  16.804  1.00  0.00     0.000 C 
HETATM    9  C   UNL     1     -46.119 -53.899  15.904  1.00  0.00     0.004 C 
HETATM   10  C   UNL     1     -46.547 -53.623  14.464  1.00  0.00     0.045 C 
BRANCH   5  11
HETATM   11  C   UNL     1     -46.509 -52.174  12.480  1.00  0.00    -0.046 C 
BRANCH  11  12
HETATM   12  N   UNL     1     -47.022 -52.026  11.337  1.00  0.00    -0.367 N 
ATOM     13  HN2 UNL     1     -46.591 -52.167  12.251  1.00  0.00     0.165 HD
ATOM     14  HN1 UNL     1     -47.437 -51.906  10.413  1.00  0.00     0.165 HD
ENDBRANCH  11  12
ENDBRANCH   5  11
ENDBRANCH   3   5
BRANCH   1  15
HETATM   15  C   UNL     1     -42.365 -53.588  12.860  1.00  0.00     0.146 C 
BRANCH  15  16
HETATM   16  C   UNL     1     -41.610 -53.554  14.145  1.00  0.00     0.006 A 
HETATM   17  C   UNL     1     -41.731 -54.350  15.323  1.00  0.00     0.038 A 
HETATM   18  C   UNL     1     -42.671 -55.457  15.631  1.00  0.00     0.071 C 
HETATM   19  N   UNL     1     -40.820 -54.006  16.241  1.00  0.00    -0.265 N 
HETATM   20  O   UNL     1     -40.057 -53.015  15.671  1.00  0.00    -0.242 OA
ATOM     21  HN  UNL     1     -40.713 -54.400  17.177  1.00  0.00     0.194 HD
HETATM   22  C   UNL     1     -40.514 -52.754  14.422  1.00  0.00     0.081 A 
HETATM   23  C   UNL     1     -39.750 -51.744  13.661  1.00  0.00     0.079 C 
ENDBRANCH  15  16
ENDBRANCH   1  15
TORSDOF 5
ENDMDL
MODEL 6
REMARK VINA RESULT:      -5.8      3.369      4.829
REMARK  5 active torsions:
REMARK  status: ('A' for Active; 'I' for Inactive)
REMARK    1  A    between atoms: C_8  and  C_9 
REMARK    2  A    between atoms: C_9  and  C_10 
REMARK       I    between atoms: C_10  and  N_12 
REMARK    3  A    between atoms: N_12  and  C_13 
REMARK    4  A    between atoms: C_13  and  C_19 
REMARK    5  A    between atoms: C_19  and  N_20 
ROOT
HETATM    1  C   UNL     1     -42.706 -52.700  15.206  1.00  0.00     0.223 C 
HETATM    2  O   UNL     1     -42.020 -51.755  15.585  1.00  0.00    -0.273 OA
HETATM    3  N   UNL     1     -43.924 -52.535  14.580  1.00  0.00    -0.340 N 
HETATM    4  H   UNL     1     -44.285 -53.323  14.055  1.00  0.00     0.164 HD
ENDROOT
BRANCH   3   5
HETATM    5  C   UNL     1     -44.559 -51.207  14.360  1.00  0.00     0.104 C 
HETATM    6  C   UNL     1     -44.691 -50.410  15.674  1.00  0.00     0.045 C 
HETATM    7  C   UNL     1     -45.590 -51.135  16.683  1.00  0.00     0.004 C 
HETATM    8  C   UNL     1     -46.983 -51.392  16.114  1.00  0.00     0.000 C 
HETATM    9  C   UNL     1     -46.936 -52.112  14.771  1.00  0.00     0.004 C 
HETATM   10  C   UNL     1     -45.987 -51.432  13.786  1.00  0.00     0.045 C 
BRANCH   5  11
HETATM   11  C   UNL     1     -43.797 -50.431  13.299  1.00  0.00    -0.046 C 
BRANCH  11  12
HETATM   12  N   UNL     1     -43.163 -49.786  12.419  1.00  0.00    -0.367 N 
ATOM     13  HN2 UNL     1     -43.696 -50.287  13.130  1.00  0.00     0.165 HD
ATOM     14  HN1 UNL     1     -42.650 -49.265  11.708  1.00  0.00     0.165 HD
ENDBRANCH  11  12
ENDBRANCH   5  11
ENDBRANCH   3   5
BRANCH   1  15
HETATM   15  C   UNL     1     -42.299 -54.141  15.468  1.00  0.00     0.146 C 
BRANCH  15  16
HETATM   16  C   UNL     1     -40.954 -54.543  14.961  1.00  0.00     0.006 A 
HETATM   17  C   UNL     1     -40.294 -54.254  13.729  1.00  0.00     0.038 A 
HETATM   18  C   UNL     1     -40.762 -53.467  12.561  1.00  0.00     0.071 C 
HETATM   19  N   UNL     1     -39.067 -54.787  13.697  1.00  0.00    -0.265 N 
HETATM   20  O   UNL     1     -38.881 -55.394  14.916  1.00  0.00    -0.242 OA
ATOM     21  HN  UNL     1     -38.403 -54.751  12.922  1.00  0.00     0.194 HD
HETATM   22  C   UNL     1     -39.993 -55.239  15.674  1.00  0.00     0.081 A 
HETATM   23  C   UNL     1     -39.916 -55.794  17.041  1.00  0.00     0.079 C 
ENDBRANCH  15  16
ENDBRANCH   1  15
TORSDOF 5
ENDMDL
MODEL 7
REMARK VINA RESULT:      -5.7      2.318      6.474
REMARK  5 active torsions:
REMARK  status: ('A' for Active; 'I' for Inactive)
REMARK    1  A    between atoms: C_8  and  C_9 
REMARK    2  A    between atoms: C_9  and  C_10 
REMARK       I    between atoms: C_10  and  N_12 
REMARK    3  A    between atoms: N_12  and  C_13 
REMARK    4  A    between atoms: C_13  and  C_19 
REMARK    5  A    between atoms: C_19  and  N_20 
ROOT
HETATM    1  C   UNL     1     -42.276 -51.296  13.294  1.00  0.00     0.223 C 
HETATM    2  O   UNL     1     -42.228 -51.905  12.229  1.00  0.00    -0.273 OA
HETATM    3  N   UNL     1     -41.267 -50.457  13.720  1.00  0.00    -0.340 N 
HETATM    4  H   UNL     1     -41.496 -49.789  14.446  1.00  0.00     0.164 HD
ENDROOT
BRANCH   3   5
HETATM    5  C   UNL     1     -39.996 -50.256  12.971  1.00  0.00     0.104 C 
HETATM    6  C   UNL     1     -39.004 -51.414  13.205  1.00  0.00     0.045 C 
HETATM    7  C   UNL     1     -38.600 -51.518  14.680  1.00  0.00     0.004 C 
HETATM    8  C   UNL     1     -37.980 -50.219  15.188  1.00  0.00     0.000 C 
HETATM    9  C   UNL     1     -38.869 -49.010  14.924  1.00  0.00     0.004 C 
HETATM   10  C   UNL     1     -39.331 -48.942  13.469  1.00  0.00     0.045 C 
BRANCH   5  11
HETATM   11  C   UNL     1     -40.287 -50.047  11.494  1.00  0.00    -0.046 C 
BRANCH  11  12
HETATM   12  N   UNL     1     -40.529 -49.874  10.268  1.00  0.00    -0.367 N 
ATOM     13  HN2 UNL     1     -40.339 -50.042  11.256  1.00  0.00     0.165 HD
ATOM     14  HN1 UNL     1     -40.724 -49.732   9.277  1.00  0.00     0.165 HD
ENDBRANCH  11  12
ENDBRANCH   5  11
ENDBRANCH   3   5
BRANCH   1  15
HETATM   15  C   UNL     1     -43.426 -51.480  14.271  1.00  0.00     0.146 C 
BRANCH  15  16
HETATM   16  C   UNL     1     -44.322 -52.644  14.015  1.00  0.00     0.006 A 
HETATM   17  C   UNL     1     -45.623 -52.713  13.433  1.00  0.00     0.038 A 
HETATM   18  C   UNL     1     -46.493 -51.628  12.915  1.00  0.00     0.071 C 
HETATM   19  N   UNL     1     -46.057 -53.977  13.357  1.00  0.00    -0.265 N 
HETATM   20  O   UNL     1     -45.038 -54.762  13.841  1.00  0.00    -0.242 OA
ATOM     21  HN  UNL     1     -46.963 -54.295  13.009  1.00  0.00     0.194 HD
HETATM   22  C   UNL     1     -44.001 -53.975  14.220  1.00  0.00     0.081 A 
HETATM   23  C   UNL     1     -42.805 -54.689  14.711  1.00  0.00     0.079 C 
ENDBRANCH  15  16
ENDBRANCH   1  15
TORSDOF 5
ENDMDL
MODEL 8
REMARK VINA RESULT:      -5.7      4.011      5.898
REMARK  5 active torsions:
REMARK  status: ('A' for Active; 'I' for Inactive)
REMARK    1  A    between atoms: C_8  and  C_9 
REMARK    2  A    between atoms: C_9  and  C_10 
REMARK       I    between atoms: C_10  and  N_12 
REMARK    3  A    between atoms: N_12  and  C_13 
REMARK    4  A    between atoms: C_13  and  C_19 
REMARK    5  A    between atoms: C_19  and  N_20 
ROOT
HETATM    1  C   UNL     1     -43.080 -54.688  15.595  1.00  0.00     0.223 C 
HETATM    2  O   UNL     1     -43.486 -55.690  15.014  1.00  0.00    -0.273 OA
HETATM    3  N   UNL     1     -43.544 -53.420  15.312  1.00  0.00    -0.340 N 
HETATM    4  H   UNL     1     -43.379 -52.701  16.006  1.00  0.00     0.164 HD
ENDROOT
BRANCH   3   5
HETATM    5  C   UNL     1     -44.529 -53.130  14.235  1.00  0.00     0.104 C 
HETATM    6  C   UNL     1     -43.864 -53.096  12.844  1.00  0.00     0.045 C 
HETATM    7  C   UNL     1     -42.812 -51.985  12.750  1.00  0.00     0.004 C 
HETATM    8  C   UNL     1     -43.413 -50.614  13.049  1.00  0.00     0.000 C 
HETATM    9  C   UNL     1     -44.158 -50.584  14.378  1.00  0.00     0.004 C 
HETATM   10  C   UNL     1     -45.157 -51.733  14.503  1.00  0.00     0.045 C 
BRANCH   5  11
HETATM   11  C   UNL     1     -45.676 -54.125  14.293  1.00  0.00    -0.046 C 
BRANCH  11  12
HETATM   12  N   UNL     1     -46.629 -54.951  14.340  1.00  0.00    -0.367 N 
ATOM     13  HN2 UNL     1     -45.860 -54.284  14.273  1.00  0.00     0.165 HD
ATOM     14  HN1 UNL     1     -47.399 -55.619  14.380  1.00  0.00     0.165 HD
ENDBRANCH  11  12
ENDBRANCH   5  11
ENDBRANCH   3   5
BRANCH   1  15
HETATM   15  C   UNL     1     -41.967 -54.757  16.629  1.00  0.00     0.146 C 
BRANCH  15  16
HETATM   16  C   UNL     1     -40.616 -55.125  16.113  1.00  0.00     0.006 A 
HETATM   17  C   UNL     1     -39.731 -54.432  15.233  1.00  0.00     0.038 A 
HETATM   18  C   UNL     1     -39.899 -53.127  14.547  1.00  0.00     0.071 C 
HETATM   19  N   UNL     1     -38.589 -55.109  15.058  1.00  0.00    -0.265 N 
HETATM   20  O   UNL     1     -38.682 -56.228  15.850  1.00  0.00    -0.242 OA
ATOM     21  HN  UNL     1     -37.807 -54.846  14.458  1.00  0.00     0.194 HD
HETATM   22  C   UNL     1     -39.878 -56.234  16.488  1.00  0.00     0.081 A 
HETATM   23  C   UNL     1     -40.096 -57.356  17.424  1.00  0.00     0.079 C 
ENDBRANCH  15  16
ENDBRANCH   1  15
TORSDOF 5
ENDMDL
MODEL 9
REMARK VINA RESULT:      -5.7      4.152      5.734
REMARK  5 active torsions:
REMARK  status: ('A' for Active; 'I' for Inactive)
REMARK    1  A    between atoms: C_8  and  C_9 
REMARK    2  A    between atoms: C_9  and  C_10 
REMARK       I    between atoms: C_10  and  N_12 
REMARK    3  A    between atoms: N_12  and  C_13 
REMARK    4  A    between atoms: C_13  and  C_19 
REMARK    5  A    between atoms: C_19  and  N_20 
ROOT
HETATM    1  C   UNL     1     -42.457 -48.971  12.313  1.00  0.00     0.223 C 
HETATM    2  O   UNL     1     -43.135 -49.963  12.565  1.00  0.00    -0.273 OA
HETATM    3  N   UNL     1     -41.081 -49.007  12.229  1.00  0.00    -0.340 N 
HETATM    4  H   UNL     1     -40.626 -48.239  11.751  1.00  0.00     0.164 HD
ENDROOT
BRANCH   3   5
HETATM    5  C   UNL     1     -40.276 -50.230  12.498  1.00  0.00     0.104 C 
HETATM    6  C   UNL     1     -40.081 -50.466  14.010  1.00  0.00     0.045 C 
HETATM    7  C   UNL     1     -39.311 -49.313  14.665  1.00  0.00     0.004 C 
HETATM    8  C   UNL     1     -37.947 -49.105  14.013  1.00  0.00     0.000 C 
HETATM    9  C   UNL     1     -38.046 -48.939  12.501  1.00  0.00     0.004 C 
HETATM   10  C   UNL     1     -38.872 -50.049  11.853  1.00  0.00     0.045 C 
BRANCH   5  11
HETATM   11  C   UNL     1     -40.903 -51.432  11.811  1.00  0.00    -0.046 C 
BRANCH  11  12
HETATM   12  N   UNL     1     -41.424 -52.430  11.242  1.00  0.00    -0.367 N 
ATOM     13  HN2 UNL     1     -40.995 -51.613  11.677  1.00  0.00     0.165 HD
ATOM     14  HN1 UNL     1     -41.845 -53.237  10.783  1.00  0.00     0.165 HD
ENDBRANCH  11  12
ENDBRANCH   5  11
ENDBRANCH   3   5
BRANCH   1  15
HETATM   15  C   UNL     1     -43.083 -47.594  12.148  1.00  0.00     0.146 C 
BRANCH  15  16
HETATM   16  C   UNL     1     -43.039 -47.016  10.774  1.00  0.00     0.006 A 
HETATM   17  C   UNL     1     -43.995 -47.049   9.714  1.00  0.00     0.038 A 
HETATM   18  C   UNL     1     -45.331 -47.692   9.657  1.00  0.00     0.071 C 
HETATM   19  N   UNL     1     -43.564 -46.363   8.648  1.00  0.00    -0.265 N 
HETATM   20  O   UNL     1     -42.347 -45.831   9.001  1.00  0.00    -0.242 OA
ATOM     21  HN  UNL     1     -44.043 -46.256   7.753  1.00  0.00     0.194 HD
HETATM   22  C   UNL     1     -42.039 -46.205  10.267  1.00  0.00     0.081 A 
HETATM   23  C   UNL     1     -40.777 -45.656  10.805  1.00  0.00     0.079 C 
ENDBRANCH  15  16
ENDBRANCH   1  15
TORSDOF 5
ENDMDL
