MODEL 1
REMARK VINA RESULT:      -6.5      0.000      0.000
REMARK  4 active torsions:
REMARK  status: ('A' for Active; 'I' for Inactive)
REMARK    1  A    between atoms: C_5  and  N_9 
REMARK       I    between atoms: N_9  and  C_10 
REMARK       I    between atoms: C_10  and  N_12 
REMARK    2  A    between atoms: N_12  and  C_13 
REMARK    3  A    between atoms: C_13  and  C_14 
REMARK    4  A    between atoms: C_14  and  C_15 
ROOT
HETATM    1  N   UNL     1     -43.347 -52.187  12.467  1.00  0.00    -0.334 N 
HETATM    2  C   UNL     1     -42.060 -51.737  12.607  1.00  0.00     0.316 C 
HETATM    3  O   UNL     1     -41.368 -51.894  13.604  1.00  0.00    -0.247 OA
HETATM    4  N   UNL     1     -41.611 -51.081  11.479  1.00  0.00    -0.343 N 
HETATM    5  H   UNL     1     -43.637 -52.331  11.511  1.00  0.00     0.165 HD
HETATM    6  H   UNL     1     -42.324 -50.530  11.024  1.00  0.00     0.164 HD
ENDROOT
BRANCH   1   7
HETATM    7  C   UNL     1     -44.038 -52.973  13.514  1.00  0.00     0.031 C 
HETATM    8  C   UNL     1     -45.491 -53.320  13.105  1.00  0.00     0.031 C 
HETATM    9  C   UNL     1     -46.402 -52.093  13.054  1.00  0.00     0.007 C 
HETATM   10  C   UNL     1     -46.435 -51.333  14.384  1.00  0.00    -0.019 C 
HETATM   11  C   UNL     1     -47.187 -52.118  15.464  1.00  0.00     0.010 C 
HETATM   12  C   UNL     1     -45.012 -50.969  14.824  1.00  0.00     0.007 C 
HETATM   13  C   UNL     1     -44.057 -52.166  14.839  1.00  0.00     0.031 C 
HETATM   14  C   UNL     1     -43.253 -54.275  13.785  1.00  0.00     0.038 C 
ENDBRANCH   1   7
BRANCH   4  15
HETATM   15  C   UNL     1     -40.280 -50.498  11.567  1.00  0.00     0.130 C 
BRANCH  15  16
HETATM   16  C   UNL     1     -40.261 -49.012  11.902  1.00  0.00     0.076 C 
BRANCH  16  17
HETATM   17  C   UNL     1     -41.478 -48.361  11.294  1.00  0.00     0.010 A 
HETATM   18  C   UNL     1     -42.547 -47.971  12.097  1.00  0.00     0.025 A 
HETATM   19  C   UNL     1     -43.708 -47.498  11.488  1.00  0.00     0.003 A 
HETATM   20  C   UNL     1     -43.771 -47.430  10.103  1.00  0.00     0.017 A 
HETATM   21  C   UNL     1     -42.660 -47.826   9.379  1.00  0.00     0.088 A 
HETATM   22  N   UNL     1     -41.520 -48.286   9.941  1.00  0.00    -0.369 N 
ATOM     23  HN  UNL     1     -40.723 -48.567   9.370  1.00  0.00     0.165 HD
ENDBRANCH  16  17
ENDBRANCH  15  16
ENDBRANCH   4  15
TORSDOF 4
ENDMDL
MODEL 2
REMARK VINA RESULT:      -6.3      2.049      3.528
REMARK  4 active torsions:
REMARK  status: ('A' for Active; 'I' for Inactive)
REMARK    1  A    between atoms: C_5  and  N_9 
REMARK       I    between atoms: N_9  and  C_10 
REMARK       I    between atoms: C_10  and  N_12 
REMARK    2  A    between atoms: N_12  and  C_13 
REMARK    3  A    between atoms: C_13  and  C_14 
REMARK    4  A    between atoms: C_14  and  C_15 
ROOT
HETATM    1  N   UNL     1     -43.425 -51.754  12.431  1.00  0.00    -0.334 N 
HETATM    2  C   UNL     1     -42.080 -51.506  12.509  1.00  0.00     0.316 C 
HETATM    3  O   UNL     1     -41.321 -52.010  13.326  1.00  0.00    -0.247 OA
HETATM    4  N   UNL     1     -41.658 -50.614  11.544  1.00  0.00    -0.343 N 
HETATM    5  H   UNL     1     -43.827 -51.593  11.520  1.00  0.00     0.165 HD
HETATM    6  H   UNL     1     -42.327 -49.883  11.352  1.00  0.00     0.164 HD
ENDROOT
BRANCH   1   7
HETATM    7  C   UNL     1     -44.112 -52.721  13.317  1.00  0.00     0.031 C 
HETATM    8  C   UNL     1     -45.581 -52.952  12.884  1.00  0.00     0.031 C 
HETATM    9  C   UNL     1     -46.464 -51.722  13.102  1.00  0.00     0.007 C 
HETATM   10  C   UNL     1     -46.451 -51.243  14.558  1.00  0.00    -0.019 C 
HETATM   11  C   UNL     1     -47.198 -52.215  15.477  1.00  0.00     0.010 C 
HETATM   12  C   UNL     1     -45.011 -51.002  15.025  1.00  0.00     0.007 C 
HETATM   13  C   UNL     1     -44.085 -52.196  14.777  1.00  0.00     0.031 C 
HETATM   14  C   UNL     1     -43.353 -54.066  13.302  1.00  0.00     0.038 C 
ENDBRANCH   1   7
BRANCH   4  15
HETATM   15  C   UNL     1     -40.255 -50.229  11.602  1.00  0.00     0.130 C 
BRANCH  15  16
HETATM   16  C   UNL     1     -39.996 -48.878  12.258  1.00  0.00     0.076 C 
BRANCH  16  17
HETATM   17  C   UNL     1     -39.001 -49.064  13.376  1.00  0.00     0.010 A 
HETATM   18  C   UNL     1     -38.269 -47.981  13.858  1.00  0.00     0.025 A 
HETATM   19  C   UNL     1     -37.264 -48.212  14.795  1.00  0.00     0.003 A 
HETATM   20  C   UNL     1     -37.017 -49.509  15.222  1.00  0.00     0.017 A 
HETATM   21  C   UNL     1     -37.798 -50.527  14.702  1.00  0.00     0.088 A 
HETATM   22  N   UNL     1     -38.780 -50.334  13.794  1.00  0.00    -0.369 N 
ATOM     23  HN  UNL     1     -39.334 -51.112  13.437  1.00  0.00     0.165 HD
ENDBRANCH  16  17
ENDBRANCH  15  16
ENDBRANCH   4  15
TORSDOF 4
ENDMDL
MODEL 3
REMARK VINA RESULT:      -6.3      1.658      3.247
REMARK  4 active torsions:
REMARK  status: ('A' for Active; 'I' for Inactive)
REMARK    1  A    between atoms: C_5  and  N_9 
REMARK       I    between atoms: N_9  and  C_10 
REMARK       I    between atoms: C_10  and  N_12 
REMARK    2  A    between atoms: N_12  and  C_13 
REMARK    3  A    between atoms: C_13  and  C_14 
REMARK    4  A    between atoms: C_14  and  C_15 
ROOT
HETATM    1  N   UNL     1     -43.661 -51.042  12.764  1.00  0.00    -0.334 N 
HETATM    2  C   UNL     1     -43.013 -49.836  12.818  1.00  0.00     0.316 C 
HETATM    3  O   UNL     1     -42.747 -49.230  13.848  1.00  0.00    -0.247 OA
HETATM    4  N   UNL     1     -42.676 -49.368  11.564  1.00  0.00    -0.343 N 
HETATM    5  H   UNL     1     -43.469 -51.582  11.934  1.00  0.00     0.165 HD
HETATM    6  H   UNL     1     -43.369 -49.573  10.860  1.00  0.00     0.164 HD
ENDROOT
BRANCH   1   7
HETATM    7  C   UNL     1     -44.075 -51.782  13.978  1.00  0.00     0.031 C 
HETATM    8  C   UNL     1     -42.873 -52.070  14.911  1.00  0.00     0.031 C 
HETATM    9  C   UNL     1     -41.886 -53.074  14.316  1.00  0.00     0.007 C 
HETATM   10  C   UNL     1     -42.553 -54.405  13.951  1.00  0.00    -0.019 C 
HETATM   11  C   UNL     1     -42.945 -55.199  15.201  1.00  0.00     0.010 C 
HETATM   12  C   UNL     1     -43.750 -54.163  13.024  1.00  0.00     0.007 C 
HETATM   13  C   UNL     1     -44.737 -53.124  13.566  1.00  0.00     0.031 C 
HETATM   14  C   UNL     1     -45.139 -50.965  14.744  1.00  0.00     0.038 C 
ENDBRANCH   1   7
BRANCH   4  15
HETATM   15  C   UNL     1     -42.054 -48.053  11.520  1.00  0.00     0.130 C 
BRANCH  15  16
HETATM   16  C   UNL     1     -42.993 -46.922  11.118  1.00  0.00     0.076 C 
BRANCH  16  17
HETATM   17  C   UNL     1     -43.685 -47.300   9.831  1.00  0.00     0.010 A 
HETATM   18  C   UNL     1     -45.060 -47.517   9.805  1.00  0.00     0.025 A 
HETATM   19  C   UNL     1     -45.644 -47.996   8.634  1.00  0.00     0.003 A 
HETATM   20  C   UNL     1     -44.844 -48.245   7.528  1.00  0.00     0.017 A 
HETATM   21  C   UNL     1     -43.486 -47.992   7.633  1.00  0.00     0.088 A 
HETATM   22  N   UNL     1     -42.893 -47.526   8.754  1.00  0.00    -0.369 N 
ATOM     23  HN  UNL     1     -41.889 -47.351   8.789  1.00  0.00     0.165 HD
ENDBRANCH  16  17
ENDBRANCH  15  16
ENDBRANCH   4  15
TORSDOF 4
ENDMDL
MODEL 4
REMARK VINA RESULT:      -6.2      1.859      2.109
REMARK  4 active torsions:
REMARK  status: ('A' for Active; 'I' for Inactive)
REMARK    1  A    between atoms: C_5  and  N_9 
REMARK       I    between atoms: N_9  and  C_10 
REMARK       I    between atoms: C_10  and  N_12 
REMARK    2  A    between atoms: N_12  and  C_13 
REMARK    3  A    between atoms: C_13  and  C_14 
REMARK    4  A    between atoms: C_14  and  C_15 
ROOT
HETATM    1  N   UNL     1     -43.417 -51.374  12.428  1.00  0.00    -0.334 N 
HETATM    2  C   UNL     1     -42.059 -51.207  12.365  1.00  0.00     0.316 C 
HETATM    3  O   UNL     1     -41.239 -51.915  12.935  1.00  0.00    -0.247 OA
HETATM    4  N   UNL     1     -41.701 -50.140  11.566  1.00  0.00    -0.343 N 
HETATM    5  H   UNL     1     -43.921 -50.994  11.641  1.00  0.00     0.165 HD
HETATM    6  H   UNL     1     -42.334 -49.357  11.636  1.00  0.00     0.164 HD
ENDROOT
BRANCH   1   7
HETATM    7  C   UNL     1     -44.052 -52.485  13.172  1.00  0.00     0.031 C 
HETATM    8  C   UNL     1     -45.502 -52.741  12.692  1.00  0.00     0.031 C 
HETATM    9  C   UNL     1     -46.458 -51.603  13.054  1.00  0.00     0.007 C 
HETATM   10  C   UNL     1     -46.483 -51.317  14.559  1.00  0.00    -0.019 C 
HETATM   11  C   UNL     1     -47.178 -52.440  15.335  1.00  0.00     0.010 C 
HETATM   12  C   UNL     1     -45.063 -51.056  15.075  1.00  0.00     0.007 C 
HETATM   13  C   UNL     1     -44.066 -52.152  14.688  1.00  0.00     0.031 C 
HETATM   14  C   UNL     1     -43.215 -53.771  12.995  1.00  0.00     0.038 C 
ENDBRANCH   1   7
BRANCH   4  15
HETATM   15  C   UNL     1     -40.278 -49.838  11.504  1.00  0.00     0.130 C 
BRANCH  15  16
HETATM   16  C   UNL     1     -39.747 -49.045  12.692  1.00  0.00     0.076 C 
BRANCH  16  17
HETATM   17  C   UNL     1     -39.669 -47.588  12.307  1.00  0.00     0.010 A 
HETATM   18  C   UNL     1     -39.487 -46.609  13.281  1.00  0.00     0.025 A 
HETATM   19  C   UNL     1     -39.555 -45.268  12.907  1.00  0.00     0.003 A 
HETATM   20  C   UNL     1     -39.804 -44.943  11.581  1.00  0.00     0.017 A 
HETATM   21  C   UNL     1     -39.963 -45.977  10.674  1.00  0.00     0.088 A 
HETATM   22  N   UNL     1     -39.899 -47.286  11.006  1.00  0.00    -0.369 N 
ATOM     23  HN  UNL     1     -40.020 -48.017  10.306  1.00  0.00     0.165 HD
ENDBRANCH  16  17
ENDBRANCH  15  16
ENDBRANCH   4  15
TORSDOF 4
ENDMDL
MODEL 5
REMARK VINA RESULT:      -6.2      1.285      5.811
REMARK  4 active torsions:
REMARK  status: ('A' for Active; 'I' for Inactive)
REMARK    1  A    between atoms: C_5  and  N_9 
REMARK       I    between atoms: N_9  and  C_10 
REMARK       I    between atoms: C_10  and  N_12 
REMARK    2  A    between atoms: N_12  and  C_13 
REMARK    3  A    between atoms: C_13  and  C_14 
REMARK    4  A    between atoms: C_14  and  C_15 
ROOT
HETATM    1  N   UNL     1     -41.643 -50.367  11.456  1.00  0.00    -0.334 N 
HETATM    2  C   UNL     1     -41.847 -51.341  12.397  1.00  0.00     0.316 C 
HETATM    3  O   UNL     1     -41.458 -51.288  13.557  1.00  0.00    -0.247 OA
HETATM    4  N   UNL     1     -42.561 -52.410  11.895  1.00  0.00    -0.343 N 
HETATM    5  H   UNL     1     -42.319 -50.361  10.708  1.00  0.00     0.165 HD
HETATM    6  H   UNL     1     -42.333 -52.630  10.937  1.00  0.00     0.164 HD
ENDROOT
BRANCH   1   7
HETATM    7  C   UNL     1     -40.954 -49.092  11.762  1.00  0.00     0.031 C 
HETATM    8  C   UNL     1     -41.397 -48.515  13.129  1.00  0.00     0.031 C 
HETATM    9  C   UNL     1     -42.849 -48.035  13.128  1.00  0.00     0.007 C 
HETATM   10  C   UNL     1     -43.118 -46.987  12.043  1.00  0.00    -0.019 C 
HETATM   11  C   UNL     1     -42.447 -45.650  12.372  1.00  0.00     0.010 C 
HETATM   12  C   UNL     1     -42.693 -47.522  10.671  1.00  0.00     0.007 C 
HETATM   13  C   UNL     1     -41.258 -48.058  10.646  1.00  0.00     0.031 C 
HETATM   14  C   UNL     1     -39.426 -49.319  11.769  1.00  0.00     0.038 C 
ENDBRANCH   1   7
BRANCH   4  15
HETATM   15  C   UNL     1     -42.757 -53.530  12.804  1.00  0.00     0.130 C 
BRANCH  15  16
HETATM   16  C   UNL     1     -44.159 -54.127  12.780  1.00  0.00     0.076 C 
BRANCH  16  17
HETATM   17  C   UNL     1     -45.083 -53.228  13.564  1.00  0.00     0.010 A 
HETATM   18  C   UNL     1     -45.960 -52.369  12.906  1.00  0.00     0.025 A 
HETATM   19  C   UNL     1     -46.701 -51.459  13.658  1.00  0.00     0.003 A 
HETATM   20  C   UNL     1     -46.545 -51.430  15.037  1.00  0.00     0.017 A 
HETATM   21  C   UNL     1     -45.660 -52.325  15.613  1.00  0.00     0.088 A 
HETATM   22  N   UNL     1     -44.931 -53.220  14.911  1.00  0.00    -0.369 N 
ATOM     23  HN  UNL     1     -44.291 -53.864  15.376  1.00  0.00     0.165 HD
ENDBRANCH  16  17
ENDBRANCH  15  16
ENDBRANCH   4  15
TORSDOF 4
ENDMDL
MODEL 6
REMARK VINA RESULT:      -6.1      2.399      3.509
REMARK  4 active torsions:
REMARK  status: ('A' for Active; 'I' for Inactive)
REMARK    1  A    between atoms: C_5  and  N_9 
REMARK       I    between atoms: N_9  and  C_10 
REMARK       I    between atoms: C_10  and  N_12 
REMARK    2  A    between atoms: N_12  and  C_13 
REMARK    3  A    between atoms: C_13  and  C_14 
REMARK    4  A    between atoms: C_14  and  C_15 
ROOT
HETATM    1  N   UNL     1     -43.754 -50.234  12.597  1.00  0.00    -0.334 N 
HETATM    2  C   UNL     1     -42.494 -49.735  12.395  1.00  0.00     0.316 C 
HETATM    3  O   UNL     1     -41.555 -49.869  13.168  1.00  0.00    -0.247 OA
HETATM    4  N   UNL     1     -42.388 -49.057  11.197  1.00  0.00    -0.343 N 
HETATM    5  H   UNL     1     -44.283 -50.385  11.752  1.00  0.00     0.165 HD
HETATM    6  H   UNL     1     -43.216 -48.533  10.958  1.00  0.00     0.164 HD
ENDROOT
BRANCH   1   7
HETATM    7  C   UNL     1     -44.110 -51.050  13.780  1.00  0.00     0.031 C 
HETATM    8  C   UNL     1     -43.244 -52.331  13.873  1.00  0.00     0.031 C 
HETATM    9  C   UNL     1     -43.547 -53.335  12.760  1.00  0.00     0.007 C 
HETATM   10  C   UNL     1     -45.024 -53.743  12.727  1.00  0.00    -0.019 C 
HETATM   11  C   UNL     1     -45.392 -54.625  13.924  1.00  0.00     0.010 C 
HETATM   12  C   UNL     1     -45.917 -52.500  12.633  1.00  0.00     0.007 C 
HETATM   13  C   UNL     1     -45.608 -51.449  13.704  1.00  0.00     0.031 C 
HETATM   14  C   UNL     1     -43.926 -50.209  15.063  1.00  0.00     0.038 C 
ENDBRANCH   1   7
BRANCH   4  15
HETATM   15  C   UNL     1     -41.104 -48.423  10.935  1.00  0.00     0.130 C 
BRANCH  15  16
HETATM   16  C   UNL     1     -41.168 -46.912  10.756  1.00  0.00     0.076 C 
BRANCH  16  17
HETATM   17  C   UNL     1     -40.412 -46.256  11.885  1.00  0.00     0.010 A 
HETATM   18  C   UNL     1     -39.940 -44.952  11.756  1.00  0.00     0.025 A 
HETATM   19  C   UNL     1     -39.131 -44.427  12.761  1.00  0.00     0.003 A 
HETATM   20  C   UNL     1     -38.815 -45.214  13.861  1.00  0.00     0.017 A 
HETATM   21  C   UNL     1     -39.334 -46.496  13.917  1.00  0.00     0.088 A 
HETATM   22  N   UNL     1     -40.123 -47.031  12.959  1.00  0.00    -0.369 N 
ATOM     23  HN  UNL     1     -40.486 -47.980  13.040  1.00  0.00     0.165 HD
ENDBRANCH  16  17
ENDBRANCH  15  16
ENDBRANCH   4  15
TORSDOF 4
ENDMDL
MODEL 7
REMARK VINA RESULT:      -6.0      1.571      2.122
REMARK  4 active torsions:
REMARK  status: ('A' for Active; 'I' for Inactive)
REMARK    1  A    between atoms: C_5  and  N_9 
REMARK       I    between atoms: N_9  and  C_10 
REMARK       I    between atoms: C_10  and  N_12 
REMARK    2  A    between atoms: N_12  and  C_13 
REMARK    3  A    between atoms: C_13  and  C_14 
REMARK    4  A    between atoms: C_14  and  C_15 
ROOT
HETATM    1  N   UNL     1     -42.944 -51.898  12.099  1.00  0.00    -0.334 N 
HETATM    2  C   UNL     1     -41.852 -51.115  12.366  1.00  0.00     0.316 C 
HETATM    3  O   UNL     1     -41.297 -51.033  13.454  1.00  0.00    -0.247 OA
HETATM    4  N   UNL     1     -41.425 -50.419  11.253  1.00  0.00    -0.343 N 
HETATM    5  H   UNL     1     -43.042 -52.160  11.130  1.00  0.00     0.165 HD
HETATM    6  H   UNL     1     -42.180 -50.101  10.664  1.00  0.00     0.164 HD
ENDROOT
BRANCH   1   7
HETATM    7  C   UNL     1     -43.556 -52.787  13.112  1.00  0.00     0.031 C 
HETATM    8  C   UNL     1     -44.908 -53.364  12.625  1.00  0.00     0.031 C 
HETATM    9  C   UNL     1     -46.002 -52.301  12.514  1.00  0.00     0.007 C 
HETATM   10  C   UNL     1     -46.233 -51.558  13.835  1.00  0.00    -0.019 C 
HETATM   11  C   UNL     1     -46.907 -52.457  14.876  1.00  0.00     0.010 C 
HETATM   12  C   UNL     1     -44.915 -50.970  14.350  1.00  0.00     0.007 C 
HETATM   13  C   UNL     1     -43.781 -51.996  14.428  1.00  0.00     0.031 C 
HETATM   14  C   UNL     1     -42.587 -53.946  13.436  1.00  0.00     0.038 C 
ENDBRANCH   1   7
BRANCH   4  15
HETATM   15  C   UNL     1     -40.316 -49.499  11.463  1.00  0.00     0.130 C 
BRANCH  15  16
HETATM   16  C   UNL     1     -40.684 -48.025  11.336  1.00  0.00     0.076 C 
BRANCH  16  17
HETATM   17  C   UNL     1     -41.433 -47.603  12.576  1.00  0.00     0.010 A 
HETATM   18  C   UNL     1     -42.583 -46.824  12.477  1.00  0.00     0.025 A 
HETATM   19  C   UNL     1     -43.171 -46.340  13.643  1.00  0.00     0.003 A 
HETATM   20  C   UNL     1     -42.597 -46.642  14.870  1.00  0.00     0.017 A 
HETATM   21  C   UNL     1     -41.459 -47.432  14.882  1.00  0.00     0.088 A 
HETATM   22  N   UNL     1     -40.869 -47.918  13.768  1.00  0.00    -0.369 N 
ATOM     23  HN  UNL     1     -40.032 -48.498  13.821  1.00  0.00     0.165 HD
ENDBRANCH  16  17
ENDBRANCH  15  16
ENDBRANCH   4  15
TORSDOF 4
ENDMDL
MODEL 8
REMARK VINA RESULT:      -6.0      1.726      3.749
REMARK  4 active torsions:
REMARK  status: ('A' for Active; 'I' for Inactive)
REMARK    1  A    between atoms: C_5  and  N_9 
REMARK       I    between atoms: N_9  and  C_10 
REMARK       I    between atoms: C_10  and  N_12 
REMARK    2  A    between atoms: N_12  and  C_13 
REMARK    3  A    between atoms: C_13  and  C_14 
REMARK    4  A    between atoms: C_14  and  C_15 
ROOT
HETATM    1  N   UNL     1     -44.106 -50.976  12.819  1.00  0.00    -0.334 N 
HETATM    2  C   UNL     1     -43.406 -49.809  12.981  1.00  0.00     0.316 C 
HETATM    3  O   UNL     1     -43.090 -49.325  14.061  1.00  0.00    -0.247 OA
HETATM    4  N   UNL     1     -43.080 -49.225  11.774  1.00  0.00    -0.343 N 
HETATM    5  H   UNL     1     -43.956 -51.432  11.932  1.00  0.00     0.165 HD
HETATM    6  H   UNL     1     -43.798 -49.326  11.072  1.00  0.00     0.164 HD
ENDROOT
BRANCH   1   7
HETATM    7  C   UNL     1     -44.522 -51.823  13.960  1.00  0.00     0.031 C 
HETATM    8  C   UNL     1     -43.349 -52.082  14.938  1.00  0.00     0.031 C 
HETATM    9  C   UNL     1     -42.259 -52.970  14.336  1.00  0.00     0.007 C 
HETATM   10  C   UNL     1     -42.804 -54.319  13.853  1.00  0.00    -0.019 C 
HETATM   11  C   UNL     1     -43.196 -55.221  15.028  1.00  0.00     0.010 C 
HETATM   12  C   UNL     1     -43.968 -54.105  12.880  1.00  0.00     0.007 C 
HETATM   13  C   UNL     1     -45.057 -53.179  13.430  1.00  0.00     0.031 C 
HETATM   14  C   UNL     1     -45.682 -51.138  14.716  1.00  0.00     0.038 C 
ENDBRANCH   1   7
BRANCH   4  15
HETATM   15  C   UNL     1     -42.404 -47.937  11.850  1.00  0.00     0.130 C 
BRANCH  15  16
HETATM   16  C   UNL     1     -41.167 -47.819  10.969  1.00  0.00     0.076 C 
BRANCH  16  17
HETATM   17  C   UNL     1     -40.015 -48.516  11.652  1.00  0.00     0.010 A 
HETATM   18  C   UNL     1     -39.482 -48.007  12.834  1.00  0.00     0.025 A 
HETATM   19  C   UNL     1     -38.336 -48.597  13.363  1.00  0.00     0.003 A 
HETATM   20  C   UNL     1     -37.755 -49.670  12.702  1.00  0.00     0.017 A 
HETATM   21  C   UNL     1     -38.355 -50.121  11.538  1.00  0.00     0.088 A 
HETATM   22  N   UNL     1     -39.467 -49.571  11.002  1.00  0.00    -0.369 N 
ATOM     23  HN  UNL     1     -39.878 -49.936  10.143  1.00  0.00     0.165 HD
ENDBRANCH  16  17
ENDBRANCH  15  16
ENDBRANCH   4  15
TORSDOF 4
ENDMDL
MODEL 9
REMARK VINA RESULT:      -5.8      1.593      2.219
REMARK  4 active torsions:
REMARK  status: ('A' for Active; 'I' for Inactive)
REMARK    1  A    between atoms: C_5  and  N_9 
REMARK       I    between atoms: N_9  and  C_10 
REMARK       I    between atoms: C_10  and  N_12 
REMARK    2  A    between atoms: N_12  and  C_13 
REMARK    3  A    between atoms: C_13  and  C_14 
REMARK    4  A    between atoms: C_14  and  C_15 
ROOT
HETATM    1  N   UNL     1     -43.414 -53.127  14.450  1.00  0.00    -0.334 N 
HETATM    2  C   UNL     1     -42.855 -52.766  13.252  1.00  0.00     0.316 C 
HETATM    3  O   UNL     1     -43.444 -52.754  12.179  1.00  0.00    -0.247 OA
HETATM    4  N   UNL     1     -41.530 -52.400  13.384  1.00  0.00    -0.343 N 
HETATM    5  H   UNL     1     -42.959 -52.731  15.258  1.00  0.00     0.165 HD
HETATM    6  H   UNL     1     -41.028 -52.949  14.066  1.00  0.00     0.164 HD
ENDROOT
BRANCH   1   7
HETATM    7  C   UNL     1     -44.839 -53.504  14.585  1.00  0.00     0.031 C 
HETATM    8  C   UNL     1     -45.771 -52.473  13.903  1.00  0.00     0.031 C 
HETATM    9  C   UNL     1     -45.788 -51.122  14.622  1.00  0.00     0.007 C 
HETATM   10  C   UNL     1     -46.190 -51.249  16.096  1.00  0.00    -0.019 C 
HETATM   11  C   UNL     1     -47.674 -51.595  16.247  1.00  0.00     0.010 C 
HETATM   12  C   UNL     1     -45.287 -52.263  16.807  1.00  0.00     0.007 C 
HETATM   13  C   UNL     1     -45.206 -53.613  16.089  1.00  0.00     0.031 C 
HETATM   14  C   UNL     1     -45.066 -54.898  13.958  1.00  0.00     0.038 C 
ENDBRANCH   1   7
BRANCH   4  15
HETATM   15  C   UNL     1     -40.832 -52.077  12.148  1.00  0.00     0.130 C 
BRANCH  15  16
HETATM   16  C   UNL     1     -39.657 -51.121  12.317  1.00  0.00     0.076 C 
BRANCH  16  17
HETATM   17  C   UNL     1     -40.050 -49.768  11.776  1.00  0.00     0.010 A 
HETATM   18  C   UNL     1     -39.345 -48.626  12.150  1.00  0.00     0.025 A 
HETATM   19  C   UNL     1     -39.817 -47.381  11.741  1.00  0.00     0.003 A 
HETATM   20  C   UNL     1     -40.973 -47.309  10.977  1.00  0.00     0.017 A 
HETATM   21  C   UNL     1     -41.608 -48.493  10.640  1.00  0.00     0.088 A 
HETATM   22  N   UNL     1     -41.173 -49.714  11.020  1.00  0.00    -0.369 N 
ATOM     23  HN  UNL     1     -41.669 -50.562  10.748  1.00  0.00     0.165 HD
ENDBRANCH  16  17
ENDBRANCH  15  16
ENDBRANCH   4  15
TORSDOF 4
ENDMDL
