MODEL 1
REMARK VINA RESULT:      -5.8      0.000      0.000
REMARK  3 active torsions:
REMARK  status: ('A' for Active; 'I' for Inactive)
REMARK    1  A    between atoms: C_2  and  C_7 
REMARK       I    between atoms: C_7  and  N_9 
REMARK    2  A    between atoms: N_9  and  C_10 
REMARK    3  A    between atoms: C_16  and  O_17 
ROOT
HETATM    1  C   UNL     1     -43.073 -47.843  10.015  1.00  0.00     0.257 C 
HETATM    2  O   UNL     1     -43.664 -47.858  11.091  1.00  0.00    -0.270 OA
HETATM    3  N   UNL     1     -41.767 -48.257   9.815  1.00  0.00    -0.308 N 
HETATM    4  H   UNL     1     -41.268 -47.801   9.057  1.00  0.00     0.170 HD
ENDROOT
BRANCH   3   5
HETATM    5  C   UNL     1     -40.982 -48.838  10.815  1.00  0.00     0.141 A 
HETATM    6  N   UNL     1     -41.232 -50.093  11.236  1.00  0.00    -0.350 N 
HETATM    7  C   UNL     1     -40.434 -50.593  12.204  1.00  0.00     0.090 A 
ATOM      8  HN  UNL     1     -41.994 -50.643  10.841  1.00  0.00     0.166 HD
HETATM    9  C   UNL     1     -39.389 -49.889  12.785  1.00  0.00     0.020 A 
HETATM   10  C   UNL     1     -39.136 -48.595  12.340  1.00  0.00     0.041 A 
HETATM   11  C   UNL     1     -39.935 -48.068  11.331  1.00  0.00     0.110 A 
BRANCH  11  12
HETATM   12  O   UNL     1     -39.748 -46.790  10.881  1.00  0.00    -0.357 OA
HETATM   13  H   UNL     1     -39.176 -46.826  10.096  1.00  0.00     0.218 HD
ENDBRANCH  11  12
ENDBRANCH   3   5
BRANCH   1  14
HETATM   14  C   UNL     1     -43.739 -47.347   8.710  1.00  0.00     0.138 C 
HETATM   15  C   UNL     1     -43.136 -48.128   7.542  1.00  0.00     0.056 C 
HETATM   16  C   UNL     1     -45.263 -47.486   8.748  1.00  0.00     0.050 C 
HETATM   17  C   UNL     1     -45.788 -46.082   8.956  1.00  0.00     0.030 C 
HETATM   18  C   UNL     1     -44.563 -45.199   9.013  1.00  0.00     0.169 C 
HETATM   19  O   UNL     1     -43.466 -45.951   8.492  1.00  0.00    -0.371 OA
ENDBRANCH   1  14
TORSDOF 3
ENDMDL
MODEL 2
REMARK VINA RESULT:      -5.5      6.423      7.337
REMARK  3 active torsions:
REMARK  status: ('A' for Active; 'I' for Inactive)
REMARK    1  A    between atoms: C_2  and  C_7 
REMARK       I    between atoms: C_7  and  N_9 
REMARK    2  A    between atoms: N_9  and  C_10 
REMARK    3  A    between atoms: C_16  and  O_17 
ROOT
HETATM    1  C   UNL     1     -43.956 -53.607  14.562  1.00  0.00     0.257 C 
HETATM    2  O   UNL     1     -43.781 -52.890  15.543  1.00  0.00    -0.270 OA
HETATM    3  N   UNL     1     -42.973 -54.347  13.927  1.00  0.00    -0.308 N 
HETATM    4  H   UNL     1     -43.113 -54.513  12.936  1.00  0.00     0.170 HD
ENDROOT
BRANCH   3   5
HETATM    5  C   UNL     1     -41.658 -54.437  14.394  1.00  0.00     0.141 A 
HETATM    6  N   UNL     1     -41.410 -54.655  15.699  1.00  0.00    -0.350 N 
HETATM    7  C   UNL     1     -40.116 -54.735  16.081  1.00  0.00     0.090 A 
ATOM      8  HN  UNL     1     -42.168 -54.757  16.373  1.00  0.00     0.166 HD
HETATM    9  C   UNL     1     -39.045 -54.597  15.211  1.00  0.00     0.020 A 
HETATM   10  C   UNL     1     -39.311 -54.376  13.864  1.00  0.00     0.041 A 
HETATM   11  C   UNL     1     -40.636 -54.309  13.447  1.00  0.00     0.110 A 
BRANCH  11  12
HETATM   12  O   UNL     1     -40.951 -54.062  12.139  1.00  0.00    -0.357 OA
HETATM   13  H   UNL     1     -40.600 -54.792  11.600  1.00  0.00     0.218 HD
ENDBRANCH  11  12
ENDBRANCH   3   5
BRANCH   1  14
HETATM   14  C   UNL     1     -45.342 -53.780  13.897  1.00  0.00     0.138 C 
HETATM   15  C   UNL     1     -45.650 -55.276  13.822  1.00  0.00     0.056 C 
HETATM   16  C   UNL     1     -46.442 -53.019  14.643  1.00  0.00     0.050 C 
HETATM   17  C   UNL     1     -46.741 -51.807  13.787  1.00  0.00     0.030 C 
HETATM   18  C   UNL     1     -45.825 -51.925  12.590  1.00  0.00     0.169 C 
HETATM   19  O   UNL     1     -45.336 -53.266  12.553  1.00  0.00    -0.371 OA
ENDBRANCH   1  14
TORSDOF 3
ENDMDL
MODEL 3
REMARK VINA RESULT:      -5.5      2.330      6.074
REMARK  3 active torsions:
REMARK  status: ('A' for Active; 'I' for Inactive)
REMARK    1  A    between atoms: C_2  and  C_7 
REMARK       I    between atoms: C_7  and  N_9 
REMARK    2  A    between atoms: N_9  and  C_10 
REMARK    3  A    between atoms: C_16  and  O_17 
ROOT
HETATM    1  C   UNL     1     -39.681 -49.746  11.582  1.00  0.00     0.257 C 
HETATM    2  O   UNL     1     -40.578 -50.573  11.441  1.00  0.00    -0.270 OA
HETATM    3  N   UNL     1     -39.781 -48.399  11.281  1.00  0.00    -0.308 N 
HETATM    4  H   UNL     1     -38.918 -47.939  11.010  1.00  0.00     0.170 HD
ENDROOT
BRANCH   3   5
HETATM    5  C   UNL     1     -40.969 -47.791  10.861  1.00  0.00     0.141 A 
HETATM    6  N   UNL     1     -41.704 -48.340   9.875  1.00  0.00    -0.350 N 
HETATM    7  C   UNL     1     -42.841 -47.702   9.521  1.00  0.00     0.090 A 
ATOM      8  HN  UNL     1     -41.415 -49.202   9.415  1.00  0.00     0.166 HD
HETATM    9  C   UNL     1     -43.280 -46.523  10.106  1.00  0.00     0.020 A 
HETATM   10  C   UNL     1     -42.515 -45.967  11.126  1.00  0.00     0.041 A 
HETATM   11  C   UNL     1     -41.351 -46.618  11.519  1.00  0.00     0.110 A 
BRANCH  11  12
HETATM   12  O   UNL     1     -40.548 -46.095  12.494  1.00  0.00    -0.357 OA
HETATM   13  H   UNL     1     -40.383 -46.788  13.155  1.00  0.00     0.218 HD
ENDBRANCH  11  12
ENDBRANCH   3   5
BRANCH   1  14
HETATM   14  C   UNL     1     -38.285 -50.123  12.133  1.00  0.00     0.138 C 
HETATM   15  C   UNL     1     -37.276 -50.009  10.989  1.00  0.00     0.056 C 
HETATM   16  C   UNL     1     -37.879 -49.254  13.326  1.00  0.00     0.050 C 
HETATM   17  C   UNL     1     -38.043 -50.141  14.541  1.00  0.00     0.030 C 
HETATM   18  C   UNL     1     -38.515 -51.473  14.006  1.00  0.00     0.169 C 
HETATM   19  O   UNL     1     -38.267 -51.484  12.600  1.00  0.00    -0.371 OA
ENDBRANCH   1  14
TORSDOF 3
ENDMDL
MODEL 4
REMARK VINA RESULT:      -5.4      2.299      6.269
REMARK  3 active torsions:
REMARK  status: ('A' for Active; 'I' for Inactive)
REMARK    1  A    between atoms: C_2  and  C_7 
REMARK       I    between atoms: C_7  and  N_9 
REMARK    2  A    between atoms: N_9  and  C_10 
REMARK    3  A    between atoms: C_16  and  O_17 
ROOT
HETATM    1  C   UNL     1     -39.328 -48.883  12.338  1.00  0.00     0.257 C 
HETATM    2  O   UNL     1     -39.354 -48.026  13.217  1.00  0.00    -0.270 OA
HETATM    3  N   UNL     1     -40.126 -48.892  11.207  1.00  0.00    -0.308 N 
HETATM    4  H   UNL     1     -40.339 -49.807  10.822  1.00  0.00     0.170 HD
ENDROOT
BRANCH   3   5
HETATM    5  C   UNL     1     -41.010 -47.859  10.882  1.00  0.00     0.141 A 
HETATM    6  N   UNL     1     -40.541 -46.656  10.496  1.00  0.00    -0.350 N 
HETATM    7  C   UNL     1     -41.451 -45.704  10.193  1.00  0.00     0.090 A 
ATOM      8  HN  UNL     1     -39.541 -46.472  10.435  1.00  0.00     0.166 HD
HETATM    9  C   UNL     1     -42.823 -45.895  10.266  1.00  0.00     0.020 A 
HETATM   10  C   UNL     1     -43.297 -47.142  10.661  1.00  0.00     0.041 A 
HETATM   11  C   UNL     1     -42.377 -48.142  10.959  1.00  0.00     0.110 A 
BRANCH  11  12
HETATM   12  O   UNL     1     -42.791 -49.375  11.383  1.00  0.00    -0.357 OA
HETATM   13  H   UNL     1     -42.378 -49.554  12.244  1.00  0.00     0.218 HD
ENDBRANCH  11  12
ENDBRANCH   3   5
BRANCH   1  14
HETATM   14  C   UNL     1     -38.364 -50.092  12.387  1.00  0.00     0.138 C 
HETATM   15  C   UNL     1     -37.400 -49.981  11.205  1.00  0.00     0.056 C 
HETATM   16  C   UNL     1     -37.611 -50.181  13.717  1.00  0.00     0.050 C 
HETATM   17  C   UNL     1     -38.268 -51.313  14.475  1.00  0.00     0.030 C 
HETATM   18  C   UNL     1     -39.349 -51.837  13.557  1.00  0.00     0.169 C 
HETATM   19  O   UNL     1     -39.086 -51.331  12.249  1.00  0.00    -0.371 OA
ENDBRANCH   1  14
TORSDOF 3
ENDMDL
MODEL 5
REMARK VINA RESULT:      -5.2      4.127      5.591
REMARK  3 active torsions:
REMARK  status: ('A' for Active; 'I' for Inactive)
REMARK    1  A    between atoms: C_2  and  C_7 
REMARK       I    between atoms: C_7  and  N_9 
REMARK    2  A    between atoms: N_9  and  C_10 
REMARK    3  A    between atoms: C_16  and  O_17 
ROOT
HETATM    1  C   UNL     1     -43.534 -51.612  13.111  1.00  0.00     0.257 C 
HETATM    2  O   UNL     1     -43.681 -50.532  13.676  1.00  0.00    -0.270 OA
HETATM    3  N   UNL     1     -42.486 -51.937  12.268  1.00  0.00    -0.308 N 
HETATM    4  H   UNL     1     -42.692 -52.622  11.547  1.00  0.00     0.170 HD
ENDROOT
BRANCH   3   5
HETATM    5  C   UNL     1     -41.401 -51.089  12.028  1.00  0.00     0.141 A 
HETATM    6  N   UNL     1     -41.588 -49.890  11.443  1.00  0.00    -0.350 N 
HETATM    7  C   UNL     1     -40.497 -49.119  11.243  1.00  0.00     0.090 A 
ATOM      8  HN  UNL     1     -42.517 -49.577  11.161  1.00  0.00     0.166 HD
HETATM    9  C   UNL     1     -39.210 -49.497  11.597  1.00  0.00     0.020 A 
HETATM   10  C   UNL     1     -39.027 -50.735  12.205  1.00  0.00     0.041 A 
HETATM   11  C   UNL     1     -40.140 -51.536  12.436  1.00  0.00     0.110 A 
BRANCH  11  12
HETATM   12  O   UNL     1     -40.011 -52.774  13.001  1.00  0.00    -0.357 OA
HETATM   13  H   UNL     1     -40.504 -52.779  13.839  1.00  0.00     0.218 HD
ENDBRANCH  11  12
ENDBRANCH   3   5
BRANCH   1  14
HETATM   14  C   UNL     1     -44.534 -52.780  13.282  1.00  0.00     0.138 C 
HETATM   15  C   UNL     1     -43.734 -54.077  13.405  1.00  0.00     0.056 C 
HETATM   16  C   UNL     1     -45.461 -52.579  14.484  1.00  0.00     0.050 C 
HETATM   17  C   UNL     1     -46.798 -52.183  13.897  1.00  0.00     0.030 C 
HETATM   18  C   UNL     1     -46.597 -52.188  12.399  1.00  0.00     0.169 C 
HETATM   19  O   UNL     1     -45.389 -52.899  12.130  1.00  0.00    -0.371 OA
ENDBRANCH   1  14
TORSDOF 3
ENDMDL
MODEL 6
REMARK VINA RESULT:      -5.2      2.690      4.152
REMARK  3 active torsions:
REMARK  status: ('A' for Active; 'I' for Inactive)
REMARK    1  A    between atoms: C_2  and  C_7 
REMARK       I    between atoms: C_7  and  N_9 
REMARK    2  A    between atoms: N_9  and  C_10 
REMARK    3  A    between atoms: C_16  and  O_17 
ROOT
HETATM    1  C   UNL     1     -42.543 -49.133  12.369  1.00  0.00     0.257 C 
HETATM    2  O   UNL     1     -43.084 -49.170  13.471  1.00  0.00    -0.270 OA
HETATM    3  N   UNL     1     -41.977 -50.216  11.720  1.00  0.00    -0.308 N 
HETATM    4  H   UNL     1     -41.210 -50.005  11.090  1.00  0.00     0.170 HD
ENDROOT
BRANCH   3   5
HETATM    5  C   UNL     1     -42.039 -51.524  12.211  1.00  0.00     0.141 A 
HETATM    6  N   UNL     1     -43.219 -52.064  12.571  1.00  0.00    -0.350 N 
HETATM    7  C   UNL     1     -43.206 -53.333  13.034  1.00  0.00     0.090 A 
ATOM      8  HN  UNL     1     -44.088 -51.536  12.497  1.00  0.00     0.166 HD
HETATM    9  C   UNL     1     -42.054 -54.095  13.164  1.00  0.00     0.020 A 
HETATM   10  C   UNL     1     -40.841 -53.531  12.785  1.00  0.00     0.041 A 
HETATM   11  C   UNL     1     -40.835 -52.232  12.288  1.00  0.00     0.110 A 
BRANCH  11  12
HETATM   12  O   UNL     1     -39.665 -51.621  11.932  1.00  0.00    -0.357 OA
HETATM   13  H   UNL     1     -39.637 -50.747  12.359  1.00  0.00     0.218 HD
ENDBRANCH  11  12
ENDBRANCH   3   5
BRANCH   1  14
HETATM   14  C   UNL     1     -42.427 -47.828  11.546  1.00  0.00     0.138 C 
HETATM   15  C   UNL     1     -43.659 -47.724  10.645  1.00  0.00     0.056 C 
HETATM   16  C   UNL     1     -42.279 -46.591  12.436  1.00  0.00     0.050 C 
HETATM   17  C   UNL     1     -40.823 -46.194  12.329  1.00  0.00     0.030 C 
HETATM   18  C   UNL     1     -40.201 -47.194  11.381  1.00  0.00     0.169 C 
HETATM   19  O   UNL     1     -41.265 -47.857  10.697  1.00  0.00    -0.371 OA
ENDBRANCH   1  14
TORSDOF 3
ENDMDL
MODEL 7
REMARK VINA RESULT:      -5.2      4.840      6.278
REMARK  3 active torsions:
REMARK  status: ('A' for Active; 'I' for Inactive)
REMARK    1  A    between atoms: C_2  and  C_7 
REMARK       I    between atoms: C_7  and  N_9 
REMARK    2  A    between atoms: N_9  and  C_10 
REMARK    3  A    between atoms: C_16  and  O_17 
ROOT
HETATM    1  C   UNL     1     -38.819 -50.747  13.152  1.00  0.00     0.257 C 
HETATM    2  O   UNL     1     -38.104 -51.382  13.922  1.00  0.00    -0.270 OA
HETATM    3  N   UNL     1     -40.126 -51.065  12.828  1.00  0.00    -0.308 N 
HETATM    4  H   UNL     1     -40.438 -50.776  11.907  1.00  0.00     0.170 HD
ENDROOT
BRANCH   3   5
HETATM    5  C   UNL     1     -40.831 -52.116  13.423  1.00  0.00     0.141 A 
HETATM    6  N   UNL     1     -41.247 -52.023  14.700  1.00  0.00    -0.350 N 
HETATM    7  C   UNL     1     -41.925 -53.074  15.211  1.00  0.00     0.090 A 
ATOM      8  HN  UNL     1     -41.058 -51.192  15.260  1.00  0.00     0.166 HD
HETATM    9  C   UNL     1     -42.203 -54.232  14.500  1.00  0.00     0.020 A 
HETATM   10  C   UNL     1     -41.772 -54.318  13.181  1.00  0.00     0.041 A 
HETATM   11  C   UNL     1     -41.089 -53.239  12.630  1.00  0.00     0.110 A 
BRANCH  11  12
HETATM   12  O   UNL     1     -40.617 -53.286  11.347  1.00  0.00    -0.357 OA
HETATM   13  H   UNL     1     -40.685 -54.203  11.032  1.00  0.00     0.218 HD
ENDBRANCH  11  12
ENDBRANCH   3   5
BRANCH   1  14
HETATM   14  C   UNL     1     -38.329 -49.469  12.429  1.00  0.00     0.138 C 
HETATM   15  C   UNL     1     -37.387 -49.893  11.302  1.00  0.00     0.056 C 
HETATM   16  C   UNL     1     -39.489 -48.621  11.900  1.00  0.00     0.050 C 
HETATM   17  C   UNL     1     -39.587 -47.443  12.844  1.00  0.00     0.030 C 
HETATM   18  C   UNL     1     -38.483 -47.647  13.857  1.00  0.00     0.169 C 
HETATM   19  O   UNL     1     -37.587 -48.623  13.326  1.00  0.00    -0.371 OA
ENDBRANCH   1  14
TORSDOF 3
ENDMDL
MODEL 8
REMARK VINA RESULT:      -5.1      5.505      7.135
REMARK  3 active torsions:
REMARK  status: ('A' for Active; 'I' for Inactive)
REMARK    1  A    between atoms: C_2  and  C_7 
REMARK       I    between atoms: C_7  and  N_9 
REMARK    2  A    between atoms: N_9  and  C_10 
REMARK    3  A    between atoms: C_16  and  O_17 
ROOT
HETATM    1  C   UNL     1     -39.272 -50.843  14.232  1.00  0.00     0.257 C 
HETATM    2  O   UNL     1     -40.128 -50.221  14.855  1.00  0.00    -0.270 OA
HETATM    3  N   UNL     1     -39.361 -52.173  13.860  1.00  0.00    -0.308 N 
HETATM    4  H   UNL     1     -38.480 -52.670  13.775  1.00  0.00     0.170 HD
ENDROOT
BRANCH   3   5
HETATM    5  C   UNL     1     -40.499 -52.956  14.074  1.00  0.00     0.141 A 
HETATM    6  N   UNL     1     -40.992 -53.119  15.316  1.00  0.00    -0.350 N 
HETATM    7  C   UNL     1     -42.096 -53.886  15.450  1.00  0.00     0.090 A 
ATOM      8  HN  UNL     1     -40.550 -52.681  16.124  1.00  0.00     0.166 HD
HETATM    9  C   UNL     1     -42.734 -54.513  14.390  1.00  0.00     0.020 A 
HETATM   10  C   UNL     1     -42.220 -54.335  13.110  1.00  0.00     0.041 A 
HETATM   11  C   UNL     1     -41.095 -53.533  12.948  1.00  0.00     0.110 A 
BRANCH  11  12
HETATM   12  O   UNL     1     -40.532 -53.352  11.715  1.00  0.00    -0.357 OA
HETATM   13  H   UNL     1     -40.013 -54.146  11.499  1.00  0.00     0.218 HD
ENDBRANCH  11  12
ENDBRANCH   3   5
BRANCH   1  14
HETATM   14  C   UNL     1     -37.947 -50.191  13.770  1.00  0.00     0.138 C 
HETATM   15  C   UNL     1     -37.062 -49.987  15.001  1.00  0.00     0.056 C 
HETATM   16  C   UNL     1     -37.233 -51.022  12.701  1.00  0.00     0.050 C 
HETATM   17  C   UNL     1     -37.465 -50.284  11.400  1.00  0.00     0.030 C 
HETATM   18  C   UNL     1     -38.278 -49.064  11.769  1.00  0.00     0.169 C 
HETATM   19  O   UNL     1     -38.186 -48.898  13.184  1.00  0.00    -0.371 OA
ENDBRANCH   1  14
TORSDOF 3
ENDMDL
MODEL 9
REMARK VINA RESULT:      -5.1      4.566      6.090
REMARK  3 active torsions:
REMARK  status: ('A' for Active; 'I' for Inactive)
REMARK    1  A    between atoms: C_2  and  C_7 
REMARK       I    between atoms: C_7  and  N_9 
REMARK    2  A    between atoms: N_9  and  C_10 
REMARK    3  A    between atoms: C_16  and  O_17 
ROOT
HETATM    1  C   UNL     1     -44.207 -51.387  13.641  1.00  0.00     0.257 C 
HETATM    2  O   UNL     1     -44.084 -50.716  14.662  1.00  0.00    -0.270 OA
HETATM    3  N   UNL     1     -43.341 -51.367  12.562  1.00  0.00    -0.308 N 
HETATM    4  H   UNL     1     -43.751 -51.581  11.659  1.00  0.00     0.170 HD
ENDROOT
BRANCH   3   5
HETATM    5  C   UNL     1     -42.150 -50.635  12.546  1.00  0.00     0.141 A 
HETATM    6  N   UNL     1     -42.069 -49.449  13.179  1.00  0.00    -0.350 N 
HETATM    7  C   UNL     1     -40.888 -48.796  13.127  1.00  0.00     0.090 A 
ATOM      8  HN  UNL     1     -42.868 -49.059  13.679  1.00  0.00     0.166 HD
HETATM    9  C   UNL     1     -39.771 -49.273  12.456  1.00  0.00     0.020 A 
HETATM   10  C   UNL     1     -39.863 -50.501  11.809  1.00  0.00     0.041 A 
HETATM   11  C   UNL     1     -41.065 -51.198  11.867  1.00  0.00     0.110 A 
BRANCH  11  12
HETATM   12  O   UNL     1     -41.216 -52.394  11.221  1.00  0.00    -0.357 OA
HETATM   13  H   UNL     1     -40.678 -53.059  11.684  1.00  0.00     0.218 HD
ENDBRANCH  11  12
ENDBRANCH   3   5
BRANCH   1  14
HETATM   14  C   UNL     1     -45.383 -52.370  13.432  1.00  0.00     0.138 C 
HETATM   15  C   UNL     1     -46.483 -51.639  12.660  1.00  0.00     0.056 C 
HETATM   16  C   UNL     1     -44.949 -53.649  12.711  1.00  0.00     0.050 C 
HETATM   17  C   UNL     1     -44.905 -54.717  13.781  1.00  0.00     0.030 C 
HETATM   18  C   UNL     1     -45.326 -54.025  15.057  1.00  0.00     0.169 C 
HETATM   19  O   UNL     1     -45.937 -52.787  14.694  1.00  0.00    -0.371 OA
ENDBRANCH   1  14
TORSDOF 3
ENDMDL
