MODEL 1
REMARK VINA RESULT:      -5.6      0.000      0.000
REMARK  3 active torsions:
REMARK  status: ('A' for Active; 'I' for Inactive)
REMARK    1  A    between atoms: C_8  and  N_9 
REMARK    2  A    between atoms: N_9  and  C_10 
REMARK    3  A    between atoms: C_10  and  C_11 
ROOT
HETATM    1  C   UNL     1     -43.372 -52.830  16.340  1.00  0.00     0.126 C 
ENDROOT
BRANCH   1   2
HETATM    2  N   UNL     1     -42.021 -52.731  15.772  1.00  0.00    -0.289 NA
HETATM    3  H   UNL     1     -41.597 -53.662  15.728  1.00  0.00     0.127 HD
BRANCH   2   4
HETATM    4  C   UNL     1     -42.123 -52.156  14.446  1.00  0.00     0.033 C 
HETATM    5  C   UNL     1     -41.540 -52.685  13.268  1.00  0.00     0.070 C 
HETATM    6 CL   UNL     1     -40.815 -54.249  13.095  1.00  0.00    -0.081 Cl
HETATM    7  C   UNL     1     -41.579 -51.929  12.102  1.00  0.00     0.113 C 
HETATM    8  N   UNL     1     -42.233 -50.757  11.975  1.00  0.00    -0.373 N 
HETATM    9  C   UNL     1     -42.900 -50.331  13.067  1.00  0.00     0.089 C 
ATOM     10  HN  UNL     1     -42.225 -50.224  11.105  1.00  0.00     0.164 HD
HETATM   11  C   UNL     1     -42.875 -50.981  14.297  1.00  0.00     0.042 C 
ENDBRANCH   2   4
ENDBRANCH   1   2
BRANCH   1  12
HETATM   12  C   UNL     1     -44.065 -54.203  16.547  1.00  0.00     0.152 C 
HETATM   13  C   UNL     1     -45.590 -53.890  16.532  1.00  0.00     0.150 C 
HETATM   14  N   UNL     1     -45.814 -53.206  15.263  1.00  0.00    -0.404 N 
HETATM   15  C   UNL     1     -46.816 -52.170  15.189  1.00  0.00     0.117 C 
HETATM   16  C   UNL     1     -45.581 -54.065  14.106  1.00  0.00     0.103 C 
HETATM   17  C   UNL     1     -46.549 -51.299  13.958  1.00  0.00     0.019 C 
HETATM   18  C   UNL     1     -46.533 -52.151  12.693  1.00  0.00     0.004 C 
HETATM   19  C   UNL     1     -45.474 -53.241  12.807  1.00  0.00     0.027 C 
HETATM   20  C   UNL     1     -44.257 -54.893  14.241  1.00  0.00     0.193 C 
HETATM   21  O   UNL     1     -43.809 -55.217  15.564  1.00  0.00    -0.381 OA
ENDBRANCH   1  12
TORSDOF 3
ENDMDL
MODEL 2
REMARK VINA RESULT:      -5.5      1.919      2.796
REMARK  3 active torsions:
REMARK  status: ('A' for Active; 'I' for Inactive)
REMARK    1  A    between atoms: C_8  and  N_9 
REMARK    2  A    between atoms: N_9  and  C_10 
REMARK    3  A    between atoms: C_10  and  C_11 
ROOT
HETATM    1  C   UNL     1     -43.465 -53.514  13.667  1.00  0.00     0.126 C 
ENDROOT
BRANCH   1   2
HETATM    2  N   UNL     1     -42.096 -54.044  13.639  1.00  0.00    -0.289 NA
HETATM    3  H   UNL     1     -42.047 -54.836  12.992  1.00  0.00     0.127 HD
BRANCH   2   4
HETATM    4  C   UNL     1     -41.203 -52.985  13.217  1.00  0.00     0.033 C 
HETATM    5  C   UNL     1     -39.884 -52.775  13.693  1.00  0.00     0.070 C 
HETATM    6 CL   UNL     1     -38.960 -53.868  14.668  1.00  0.00    -0.081 Cl
HETATM    7  C   UNL     1     -39.213 -51.615  13.322  1.00  0.00     0.113 C 
HETATM    8  N   UNL     1     -39.686 -50.709  12.442  1.00  0.00    -0.373 N 
HETATM    9  C   UNL     1     -40.883 -50.991  11.891  1.00  0.00     0.089 C 
ATOM     10  HN  UNL     1     -39.168 -49.862  12.207  1.00  0.00     0.164 HD
HETATM   11  C   UNL     1     -41.662 -52.091  12.238  1.00  0.00     0.042 C 
ENDBRANCH   2   4
ENDBRANCH   1   2
BRANCH   1  12
HETATM   12  C   UNL     1     -44.621 -54.214  12.904  1.00  0.00     0.152 C 
HETATM   13  C   UNL     1     -45.523 -54.826  14.015  1.00  0.00     0.150 C 
HETATM   14  N   UNL     1     -45.869 -53.699  14.873  1.00  0.00    -0.404 N 
HETATM   15  C   UNL     1     -46.029 -53.918  16.291  1.00  0.00     0.117 C 
HETATM   16  C   UNL     1     -46.699 -52.705  14.200  1.00  0.00     0.103 C 
HETATM   17  C   UNL     1     -45.910 -52.578  17.023  1.00  0.00     0.019 C 
HETATM   18  C   UNL     1     -46.937 -51.583  16.491  1.00  0.00     0.004 C 
HETATM   19  C   UNL     1     -46.748 -51.383  14.993  1.00  0.00     0.027 C 
HETATM   20  C   UNL     1     -46.170 -52.367  12.764  1.00  0.00     0.193 C 
HETATM   21  O   UNL     1     -45.443 -53.387  12.066  1.00  0.00    -0.381 OA
ENDBRANCH   1  12
TORSDOF 3
ENDMDL
MODEL 3
REMARK VINA RESULT:      -5.4      2.184      3.560
REMARK  3 active torsions:
REMARK  status: ('A' for Active; 'I' for Inactive)
REMARK    1  A    between atoms: C_8  and  N_9 
REMARK    2  A    between atoms: N_9  and  C_10 
REMARK    3  A    between atoms: C_10  and  C_11 
ROOT
HETATM    1  C   UNL     1     -43.503 -52.533  12.700  1.00  0.00     0.126 C 
ENDROOT
BRANCH   1   2
HETATM    2  N   UNL     1     -42.296 -52.438  11.869  1.00  0.00    -0.289 NA
HETATM    3  H   UNL     1     -42.230 -51.500  11.464  1.00  0.00     0.127 HD
BRANCH   2   4
HETATM    4  C   UNL     1     -41.143 -52.715  12.702  1.00  0.00     0.033 C 
HETATM    5  C   UNL     1     -40.211 -51.755  13.170  1.00  0.00     0.070 C 
HETATM    6 CL   UNL     1     -40.379 -50.033  13.080  1.00  0.00    -0.081 Cl
HETATM    7  C   UNL     1     -39.061 -52.196  13.815  1.00  0.00     0.113 C 
HETATM    8  N   UNL     1     -38.810 -53.482  14.132  1.00  0.00    -0.373 N 
HETATM    9  C   UNL     1     -39.770 -54.369  13.803  1.00  0.00     0.089 C 
ATOM     10  HN  UNL     1     -37.946 -53.767  14.593  1.00  0.00     0.164 HD
HETATM   11  C   UNL     1     -40.928 -54.042  13.103  1.00  0.00     0.042 C 
ENDBRANCH   2   4
ENDBRANCH   1   2
BRANCH   1  12
HETATM   12  C   UNL     1     -44.628 -53.554  12.382  1.00  0.00     0.152 C 
HETATM   13  C   UNL     1     -44.877 -54.307  13.722  1.00  0.00     0.150 C 
HETATM   14  N   UNL     1     -45.176 -53.254  14.686  1.00  0.00    -0.404 N 
HETATM   15  C   UNL     1     -44.755 -53.417  16.057  1.00  0.00     0.117 C 
HETATM   16  C   UNL     1     -46.422 -52.553  14.394  1.00  0.00     0.103 C 
HETATM   17  C   UNL     1     -44.739 -52.048  16.743  1.00  0.00     0.019 C 
HETATM   18  C   UNL     1     -46.111 -51.388  16.655  1.00  0.00     0.004 C 
HETATM   19  C   UNL     1     -46.531 -51.241  15.198  1.00  0.00     0.027 C 
HETATM   20  C   UNL     1     -46.551 -52.182  12.877  1.00  0.00     0.193 C 
HETATM   21  O   UNL     1     -45.881 -53.023  11.928  1.00  0.00    -0.381 OA
ENDBRANCH   1  12
TORSDOF 3
ENDMDL
MODEL 4
REMARK VINA RESULT:      -5.3      2.491      3.389
REMARK  3 active torsions:
REMARK  status: ('A' for Active; 'I' for Inactive)
REMARK    1  A    between atoms: C_8  and  N_9 
REMARK    2  A    between atoms: N_9  and  C_10 
REMARK    3  A    between atoms: C_10  and  C_11 
ROOT
HETATM    1  C   UNL     1     -42.765 -52.263  13.181  1.00  0.00     0.126 C 
ENDROOT
BRANCH   1   2
HETATM    2  N   UNL     1     -42.445 -51.380  12.052  1.00  0.00    -0.289 NA
HETATM    3  H   UNL     1     -43.088 -50.582  12.047  1.00  0.00     0.127 HD
BRANCH   2   4
HETATM    4  C   UNL     1     -41.076 -50.930  12.196  1.00  0.00     0.033 C 
HETATM    5  C   UNL     1     -40.500 -49.812  11.542  1.00  0.00     0.070 C 
HETATM    6 CL   UNL     1     -41.350 -48.595  10.650  1.00  0.00    -0.081 Cl
HETATM    7  C   UNL     1     -39.128 -49.608  11.645  1.00  0.00     0.113 C 
HETATM    8  N   UNL     1     -38.304 -50.342  12.420  1.00  0.00    -0.373 N 
HETATM    9  C   UNL     1     -38.889 -51.318  13.145  1.00  0.00     0.089 C 
ATOM     10  HN  UNL     1     -37.300 -50.170  12.457  1.00  0.00     0.164 HD
HETATM   11  C   UNL     1     -40.240 -51.643  13.068  1.00  0.00     0.042 C 
ENDBRANCH   2   4
ENDBRANCH   1   2
BRANCH   1  12
HETATM   12  C   UNL     1     -43.443 -53.643  12.964  1.00  0.00     0.152 C 
HETATM   13  C   UNL     1     -43.890 -54.098  14.384  1.00  0.00     0.150 C 
HETATM   14  N   UNL     1     -44.725 -53.007  14.876  1.00  0.00    -0.404 N 
HETATM   15  C   UNL     1     -44.715 -52.695  16.285  1.00  0.00     0.117 C 
HETATM   16  C   UNL     1     -45.957 -52.846  14.112  1.00  0.00     0.103 C 
HETATM   17  C   UNL     1     -45.255 -51.277  16.489  1.00  0.00     0.019 C 
HETATM   18  C   UNL     1     -46.655 -51.146  15.898  1.00  0.00     0.004 C 
HETATM   19  C   UNL     1     -46.633 -51.493  14.414  1.00  0.00     0.027 C 
HETATM   20  C   UNL     1     -45.707 -52.906  12.565  1.00  0.00     0.193 C 
HETATM   21  O   UNL     1     -44.591 -53.677  12.103  1.00  0.00    -0.381 OA
ENDBRANCH   1  12
TORSDOF 3
ENDMDL
MODEL 5
REMARK VINA RESULT:      -5.1      3.160      6.284
REMARK  3 active torsions:
REMARK  status: ('A' for Active; 'I' for Inactive)
REMARK    1  A    between atoms: C_8  and  N_9 
REMARK    2  A    between atoms: N_9  and  C_10 
REMARK    3  A    between atoms: C_10  and  C_11 
ROOT
HETATM    1  C   UNL     1     -42.006 -51.811  12.252  1.00  0.00     0.126 C 
ENDROOT
BRANCH   1   2
HETATM    2  N   UNL     1     -43.011 -52.732  11.705  1.00  0.00    -0.289 NA
HETATM    3  H   UNL     1     -42.547 -53.460  11.153  1.00  0.00     0.127 HD
BRANCH   2   4
HETATM    4  C   UNL     1     -43.743 -53.320  12.808  1.00  0.00     0.033 C 
HETATM    5  C   UNL     1     -45.110 -53.095  13.107  1.00  0.00     0.070 C 
HETATM    6 CL   UNL     1     -46.264 -52.296  12.092  1.00  0.00    -0.081 Cl
HETATM    7  C   UNL     1     -45.627 -53.592  14.298  1.00  0.00     0.113 C 
HETATM    8  N   UNL     1     -44.946 -54.378  15.156  1.00  0.00    -0.373 N 
HETATM    9  C   UNL     1     -43.688 -54.698  14.791  1.00  0.00     0.089 C 
ATOM     10  HN  UNL     1     -45.357 -54.710  16.029  1.00  0.00     0.164 HD
HETATM   11  C   UNL     1     -43.057 -54.205  13.653  1.00  0.00     0.042 C 
ENDBRANCH   2   4
ENDBRANCH   1   2
BRANCH   1  12
HETATM   12  C   UNL     1     -42.377 -50.366  12.677  1.00  0.00     0.152 C 
HETATM   13  C   UNL     1     -41.421 -50.036  13.860  1.00  0.00     0.150 C 
HETATM   14  N   UNL     1     -40.082 -50.259  13.325  1.00  0.00    -0.404 N 
HETATM   15  C   UNL     1     -39.051 -50.764  14.199  1.00  0.00     0.117 C 
HETATM   16  C   UNL     1     -39.730 -49.318  12.266  1.00  0.00     0.103 C 
HETATM   17  C   UNL     1     -37.920 -51.356  13.352  1.00  0.00     0.019 C 
HETATM   18  C   UNL     1     -37.371 -50.310  12.387  1.00  0.00     0.004 C 
HETATM   19  C   UNL     1     -38.484 -49.789  11.488  1.00  0.00     0.027 C 
HETATM   20  C   UNL     1     -40.889 -49.139  11.225  1.00  0.00     0.193 C 
HETATM   21  O   UNL     1     -42.232 -49.338  11.686  1.00  0.00    -0.381 OA
ENDBRANCH   1  12
TORSDOF 3
ENDMDL
MODEL 6
REMARK VINA RESULT:      -5.0      2.156      2.559
REMARK  3 active torsions:
REMARK  status: ('A' for Active; 'I' for Inactive)
REMARK    1  A    between atoms: C_8  and  N_9 
REMARK    2  A    between atoms: N_9  and  C_10 
REMARK    3  A    between atoms: C_10  and  C_11 
ROOT
HETATM    1  C   UNL     1     -41.990 -52.222  14.350  1.00  0.00     0.126 C 
ENDROOT
BRANCH   1   2
HETATM    2  N   UNL     1     -40.592 -51.772  14.348  1.00  0.00    -0.289 NA
HETATM    3  H   UNL     1     -39.969 -52.584  14.310  1.00  0.00     0.127 HD
BRANCH   2   4
HETATM    4  C   UNL     1     -40.387 -50.919  13.195  1.00  0.00     0.033 C 
HETATM    5  C   UNL     1     -39.130 -50.545  12.655  1.00  0.00     0.070 C 
HETATM    6 CL   UNL     1     -37.592 -51.221  13.075  1.00  0.00    -0.081 Cl
HETATM    7  C   UNL     1     -39.090 -49.582  11.653  1.00  0.00     0.113 C 
HETATM    8  N   UNL     1     -40.180 -49.044  11.069  1.00  0.00    -0.373 N 
HETATM    9  C   UNL     1     -41.370 -49.510  11.497  1.00  0.00     0.089 C 
ATOM     10  HN  UNL     1     -40.108 -48.327  10.346  1.00  0.00     0.164 HD
HETATM   11  C   UNL     1     -41.522 -50.426  12.533  1.00  0.00     0.042 C 
ENDBRANCH   2   4
ENDBRANCH   1   2
BRANCH   1  12
HETATM   12  C   UNL     1     -42.363 -53.709  14.110  1.00  0.00     0.152 C 
HETATM   13  C   UNL     1     -43.463 -54.023  15.167  1.00  0.00     0.150 C 
HETATM   14  N   UNL     1     -44.498 -53.022  14.930  1.00  0.00    -0.404 N 
HETATM   15  C   UNL     1     -45.253 -52.514  16.050  1.00  0.00     0.117 C 
HETATM   16  C   UNL     1     -45.148 -53.173  13.633  1.00  0.00     0.103 C 
HETATM   17  C   UNL     1     -45.907 -51.187  15.654  1.00  0.00     0.019 C 
HETATM   18  C   UNL     1     -46.789 -51.371  14.423  1.00  0.00     0.004 C 
HETATM   19  C   UNL     1     -45.966 -51.919  13.264  1.00  0.00     0.027 C 
HETATM   20  C   UNL     1     -44.116 -53.413  12.478  1.00  0.00     0.193 C 
HETATM   21  O   UNL     1     -42.878 -54.051  12.815  1.00  0.00    -0.381 OA
ENDBRANCH   1  12
TORSDOF 3
ENDMDL
MODEL 7
REMARK VINA RESULT:      -4.9      1.795      2.353
REMARK  3 active torsions:
REMARK  status: ('A' for Active; 'I' for Inactive)
REMARK    1  A    between atoms: C_8  and  N_9 
REMARK    2  A    between atoms: N_9  and  C_10 
REMARK    3  A    between atoms: C_10  and  C_11 
ROOT
HETATM    1  C   UNL     1     -42.923 -53.499  14.185  1.00  0.00     0.126 C 
ENDROOT
BRANCH   1   2
HETATM    2  N   UNL     1     -42.008 -52.527  14.798  1.00  0.00    -0.289 NA
HETATM    3  H   UNL     1     -41.283 -53.022  15.325  1.00  0.00     0.127 HD
BRANCH   2   4
HETATM    4  C   UNL     1     -41.415 -51.728  13.744  1.00  0.00     0.033 C 
HETATM    5  C   UNL     1     -42.099 -50.782  12.940  1.00  0.00     0.070 C 
HETATM    6 CL   UNL     1     -43.702 -50.180  13.201  1.00  0.00    -0.081 Cl
HETATM    7  C   UNL     1     -41.435 -50.220  11.855  1.00  0.00     0.113 C 
HETATM    8  N   UNL     1     -40.134 -50.427  11.566  1.00  0.00    -0.373 N 
HETATM    9  C   UNL     1     -39.459 -51.221  12.421  1.00  0.00     0.089 C 
ATOM     10  HN  UNL     1     -39.688 -50.007  10.751  1.00  0.00     0.164 HD
HETATM   11  C   UNL     1     -40.043 -51.880  13.499  1.00  0.00     0.042 C 
ENDBRANCH   2   4
ENDBRANCH   1   2
BRANCH   1  12
HETATM   12  C   UNL     1     -43.400 -54.759  14.955  1.00  0.00     0.152 C 
HETATM   13  C   UNL     1     -43.916 -54.222  16.323  1.00  0.00     0.150 C 
HETATM   14  N   UNL     1     -44.922 -53.225  15.972  1.00  0.00    -0.404 N 
HETATM   15  C   UNL     1     -45.082 -52.062  16.811  1.00  0.00     0.117 C 
HETATM   16  C   UNL     1     -46.089 -53.803  15.313  1.00  0.00     0.103 C 
HETATM   17  C   UNL     1     -45.810 -50.970  16.023  1.00  0.00     0.019 C 
HETATM   18  C   UNL     1     -47.155 -51.482  15.516  1.00  0.00     0.004 C 
HETATM   19  C   UNL     1     -46.954 -52.715  14.644  1.00  0.00     0.027 C 
HETATM   20  C   UNL     1     -45.691 -54.831  14.199  1.00  0.00     0.193 C 
HETATM   21  O   UNL     1     -44.450 -55.531  14.354  1.00  0.00    -0.381 OA
ENDBRANCH   1  12
TORSDOF 3
ENDMDL
MODEL 8
REMARK VINA RESULT:      -4.9      2.698      4.486
REMARK  3 active torsions:
REMARK  status: ('A' for Active; 'I' for Inactive)
REMARK    1  A    between atoms: C_8  and  N_9 
REMARK    2  A    between atoms: N_9  and  C_10 
REMARK    3  A    between atoms: C_10  and  C_11 
ROOT
HETATM    1  C   UNL     1     -43.543 -51.501  13.632  1.00  0.00     0.126 C 
ENDROOT
BRANCH   1   2
HETATM    2  N   UNL     1     -43.787 -50.252  12.898  1.00  0.00    -0.289 NA
HETATM    3  H   UNL     1     -44.123 -49.533  13.545  1.00  0.00     0.127 HD
BRANCH   2   4
HETATM    4  C   UNL     1     -42.548 -49.838  12.274  1.00  0.00     0.033 C 
HETATM    5  C   UNL     1     -42.359 -48.655  11.516  1.00  0.00     0.070 C 
HETATM    6 CL   UNL     1     -43.466 -47.329  11.389  1.00  0.00    -0.081 Cl
HETATM    7  C   UNL     1     -41.159 -48.479  10.834  1.00  0.00     0.113 C 
HETATM    8  N   UNL     1     -40.101 -49.310  10.926  1.00  0.00    -0.373 N 
HETATM    9  C   UNL     1     -40.246 -50.360  11.759  1.00  0.00     0.089 C 
ATOM     10  HN  UNL     1     -39.243 -49.154  10.397  1.00  0.00     0.164 HD
HETATM   11  C   UNL     1     -41.423 -50.659  12.439  1.00  0.00     0.042 C 
ENDBRANCH   2   4
ENDBRANCH   1   2
BRANCH   1  12
HETATM   12  C   UNL     1     -44.485 -52.725  13.485  1.00  0.00     0.152 C 
HETATM   13  C   UNL     1     -43.643 -53.790  12.723  1.00  0.00     0.150 C 
HETATM   14  N   UNL     1     -42.441 -53.958  13.533  1.00  0.00    -0.404 N 
HETATM   15  C   UNL     1     -41.186 -54.239  12.878  1.00  0.00     0.117 C 
HETATM   16  C   UNL     1     -42.715 -54.541  14.843  1.00  0.00     0.103 C 
HETATM   17  C   UNL     1     -40.036 -53.903  13.831  1.00  0.00     0.019 C 
HETATM   18  C   UNL     1     -40.173 -54.686  15.133  1.00  0.00     0.004 C 
HETATM   19  C   UNL     1     -41.511 -54.378  15.793  1.00  0.00     0.027 C 
HETATM   20  C   UNL     1     -43.952 -53.876  15.539  1.00  0.00     0.193 C 
HETATM   21  O   UNL     1     -44.971 -53.323  14.696  1.00  0.00    -0.381 OA
ENDBRANCH   1  12
TORSDOF 3
ENDMDL
MODEL 9
REMARK VINA RESULT:      -4.7      2.596      5.625
REMARK  3 active torsions:
REMARK  status: ('A' for Active; 'I' for Inactive)
REMARK    1  A    between atoms: C_8  and  N_9 
REMARK    2  A    between atoms: N_9  and  C_10 
REMARK    3  A    between atoms: C_10  and  C_11 
ROOT
HETATM    1  C   UNL     1     -42.041 -52.383  14.118  1.00  0.00     0.126 C 
ENDROOT
BRANCH   1   2
HETATM    2  N   UNL     1     -42.674 -53.145  15.202  1.00  0.00    -0.289 NA
HETATM    3  H   UNL     1     -42.695 -52.577  16.055  1.00  0.00     0.127 HD
BRANCH   2   4
HETATM    4  C   UNL     1     -44.017 -53.497  14.791  1.00  0.00     0.033 C 
HETATM    5  C   UNL     1     -45.162 -52.670  14.908  1.00  0.00     0.070 C 
HETATM    6 CL   UNL     1     -45.174 -50.985  15.311  1.00  0.00    -0.081 Cl
HETATM    7  C   UNL     1     -46.413 -53.211  14.630  1.00  0.00     0.113 C 
HETATM    8  N   UNL     1     -46.615 -54.453  14.146  1.00  0.00    -0.373 N 
HETATM    9  C   UNL     1     -45.507 -55.183  13.910  1.00  0.00     0.089 C 
ATOM     10  HN  UNL     1     -47.551 -54.819  13.970  1.00  0.00     0.164 HD
HETATM   11  C   UNL     1     -44.216 -54.758  14.209  1.00  0.00     0.042 C 
ENDBRANCH   2   4
ENDBRANCH   1   2
BRANCH   1  12
HETATM   12  C   UNL     1     -41.118 -53.069  13.076  1.00  0.00     0.152 C 
HETATM   13  C   UNL     1     -41.175 -52.150  11.821  1.00  0.00     0.150 C 
HETATM   14  N   UNL     1     -40.778 -50.834  12.309  1.00  0.00    -0.404 N 
HETATM   15  C   UNL     1     -41.372 -49.658  11.720  1.00  0.00     0.117 C 
HETATM   16  C   UNL     1     -39.392 -50.790  12.762  1.00  0.00     0.103 C 
HETATM   17  C   UNL     1     -41.188 -48.472  12.672  1.00  0.00     0.019 C 
HETATM   18  C   UNL     1     -39.710 -48.257  12.979  1.00  0.00     0.004 C 
HETATM   19  C   UNL     1     -39.110 -49.518  13.588  1.00  0.00     0.027 C 
HETATM   20  C   UNL     1     -39.024 -52.020  13.662  1.00  0.00     0.193 C 
HETATM   21  O   UNL     1     -39.740 -53.242  13.441  1.00  0.00    -0.381 OA
ENDBRANCH   1  12
TORSDOF 3
ENDMDL
