MODEL 1
REMARK VINA RESULT:      -5.8      0.000      0.000
REMARK  7 active torsions:
REMARK  status: ('A' for Active; 'I' for Inactive)
REMARK    1  A    between atoms: C_2  and  O_3 
REMARK    2  A    between atoms: C_2  and  C_18 
REMARK    3  A    between atoms: O_3  and  C_4 
REMARK    4  A    between atoms: C_4  and  C_5 
REMARK    5  A    between atoms: C_5  and  O_6 
REMARK    6  A    between atoms: C_5  and  C_7 
REMARK    7  A    between atoms: C_7  and  N_8 
ROOT
HETATM    1  C   UNL     1     -41.404 -52.720  12.370  1.00  0.00     0.160 C 
ENDROOT
BRANCH   1   2
HETATM    2  C   UNL     1     -40.820 -51.399  12.885  1.00  0.00     0.201 C 
BRANCH   2   3
HETATM    3  O   UNL     1     -41.771 -50.783  13.768  1.00  0.00    -0.379 OA
BRANCH   3   4
HETATM    4  C   UNL     1     -42.997 -50.406  13.120  1.00  0.00     0.150 C 
HETATM    5  C   UNL     1     -43.047 -48.904  12.829  1.00  0.00     0.045 C 
BRANCH   4   6
HETATM    6  C   UNL     1     -44.179 -50.748  14.016  1.00  0.00    -0.030 A 
HETATM    7  C   UNL     1     -45.399 -51.144  13.440  1.00  0.00     0.011 A 
HETATM    8  C   UNL     1     -46.545 -51.291  14.227  1.00  0.00     0.024 A 
HETATM    9  C   UNL     1     -46.478 -51.053  15.597  1.00  0.00     0.034 A 
HETATM   10 CL   UNL     1     -47.902 -51.169  16.556  1.00  0.00    -0.084 Cl
HETATM   11  C   UNL     1     -45.271 -50.696  16.191  1.00  0.00     0.024 A 
HETATM   12  C   UNL     1     -44.125 -50.545  15.404  1.00  0.00     0.011 A 
ENDBRANCH   4   6
ENDBRANCH   3   4
ENDBRANCH   2   3
ENDBRANCH   1   2
BRANCH   1  13
HETATM   13  O   UNL     1     -40.600 -53.172  11.268  1.00  0.00    -0.392 OA
HETATM   14  H   UNL     1     -39.751 -53.461  11.655  1.00  0.00     0.210 HD
ENDBRANCH   1  13
BRANCH   1  15
HETATM   15  C   UNL     1     -41.421 -53.792  13.471  1.00  0.00     0.166 C 
BRANCH  15  16
HETATM   16  N   UNL     1     -42.779 -54.087  13.919  1.00  0.00    -0.307 N 
HETATM   17  C   UNL     1     -43.757 -54.358  13.001  1.00  0.00     0.186 A 
HETATM   18  N   UNL     1     -44.993 -54.592  13.283  1.00  0.00    -0.355 N 
HETATM   19  C   UNL     1     -45.363 -54.545  14.605  1.00  0.00     0.017 A 
ATOM     20  HN  UNL     1     -45.672 -54.804  12.551  1.00  0.00     0.166 HD
HETATM   21  C   UNL     1     -46.817 -54.849  14.845  1.00  0.00     0.069 C 
HETATM   22  C   UNL     1     -44.515 -54.246  15.608  1.00  0.00     0.028 A 
HETATM   23  C   UNL     1     -44.855 -54.160  17.063  1.00  0.00     0.056 C 
HETATM   24  C   UNL     1     -43.098 -53.963  15.252  1.00  0.00     0.256 A 
HETATM   25  O   UNL     1     -42.285 -53.635  16.115  1.00  0.00    -0.267 OA
ENDBRANCH  15  16
ENDBRANCH   1  15
TORSDOF 7
ENDMDL
MODEL 2
REMARK VINA RESULT:      -5.8      1.112      1.973
REMARK  7 active torsions:
REMARK  status: ('A' for Active; 'I' for Inactive)
REMARK    1  A    between atoms: C_2  and  O_3 
REMARK    2  A    between atoms: C_2  and  C_18 
REMARK    3  A    between atoms: O_3  and  C_4 
REMARK    4  A    between atoms: C_4  and  C_5 
REMARK    5  A    between atoms: C_5  and  O_6 
REMARK    6  A    between atoms: C_5  and  C_7 
REMARK    7  A    between atoms: C_7  and  N_8 
ROOT
HETATM    1  C   UNL     1     -41.357 -52.863  12.548  1.00  0.00     0.160 C 
ENDROOT
BRANCH   1   2
HETATM    2  C   UNL     1     -40.677 -51.811  13.434  1.00  0.00     0.201 C 
BRANCH   2   3
HETATM    3  O   UNL     1     -41.684 -50.941  13.977  1.00  0.00    -0.379 OA
BRANCH   3   4
HETATM    4  C   UNL     1     -42.797 -50.728  13.094  1.00  0.00     0.150 C 
HETATM    5  C   UNL     1     -42.708 -49.373  12.386  1.00  0.00     0.045 C 
BRANCH   4   6
HETATM    6  C   UNL     1     -44.096 -50.756  13.887  1.00  0.00    -0.030 A 
HETATM    7  C   UNL     1     -44.067 -50.550  15.278  1.00  0.00     0.011 A 
HETATM    8  C   UNL     1     -45.216 -50.745  16.051  1.00  0.00     0.024 A 
HETATM    9  C   UNL     1     -46.403 -51.138  15.440  1.00  0.00     0.034 A 
HETATM   10 CL   UNL     1     -47.799 -51.444  16.398  1.00  0.00    -0.084 Cl
HETATM   11  C   UNL     1     -46.460 -51.312  14.059  1.00  0.00     0.024 A 
HETATM   12  C   UNL     1     -45.311 -51.121  13.286  1.00  0.00     0.011 A 
ENDBRANCH   4   6
ENDBRANCH   3   4
ENDBRANCH   2   3
ENDBRANCH   1   2
BRANCH   1  13
HETATM   13  O   UNL     1     -40.564 -53.037  11.363  1.00  0.00    -0.392 OA
HETATM   14  H   UNL     1     -40.279 -53.972  11.364  1.00  0.00     0.210 HD
ENDBRANCH   1  13
BRANCH   1  15
HETATM   15  C   UNL     1     -41.493 -54.207  13.281  1.00  0.00     0.166 C 
BRANCH  15  16
HETATM   16  N   UNL     1     -42.574 -54.181  14.263  1.00  0.00    -0.307 N 
HETATM   17  C   UNL     1     -42.284 -54.028  15.591  1.00  0.00     0.186 A 
HETATM   18  N   UNL     1     -43.153 -54.030  16.544  1.00  0.00    -0.355 N 
HETATM   19  C   UNL     1     -44.469 -54.221  16.201  1.00  0.00     0.017 A 
ATOM     20  HN  UNL     1     -42.873 -53.894  17.516  1.00  0.00     0.166 HD
HETATM   21  C   UNL     1     -45.417 -54.189  17.370  1.00  0.00     0.069 C 
HETATM   22  C   UNL     1     -44.891 -54.429  14.939  1.00  0.00     0.028 A 
HETATM   23  C   UNL     1     -46.303 -54.661  14.501  1.00  0.00     0.056 C 
HETATM   24  C   UNL     1     -43.864 -54.439  13.862  1.00  0.00     0.256 A 
HETATM   25  O   UNL     1     -44.177 -54.673  12.695  1.00  0.00    -0.267 OA
ENDBRANCH  15  16
ENDBRANCH   1  15
TORSDOF 7
ENDMDL
MODEL 3
REMARK VINA RESULT:      -5.5      3.810      6.975
REMARK  7 active torsions:
REMARK  status: ('A' for Active; 'I' for Inactive)
REMARK    1  A    between atoms: C_2  and  O_3 
REMARK    2  A    between atoms: C_2  and  C_18 
REMARK    3  A    between atoms: O_3  and  C_4 
REMARK    4  A    between atoms: C_4  and  C_5 
REMARK    5  A    between atoms: C_5  and  O_6 
REMARK    6  A    between atoms: C_5  and  C_7 
REMARK    7  A    between atoms: C_7  and  N_8 
ROOT
HETATM    1  C   UNL     1     -40.094 -50.330  11.931  1.00  0.00     0.160 C 
ENDROOT
BRANCH   1   2
HETATM    2  C   UNL     1     -39.490 -51.220  13.025  1.00  0.00     0.201 C 
BRANCH   2   3
HETATM    3  O   UNL     1     -39.837 -52.588  12.755  1.00  0.00    -0.379 OA
BRANCH   3   4
HETATM    4  C   UNL     1     -40.102 -53.357  13.940  1.00  0.00     0.150 C 
HETATM    5  C   UNL     1     -39.284 -54.651  13.972  1.00  0.00     0.045 C 
BRANCH   4   6
HETATM    6  C   UNL     1     -41.576 -53.735  13.988  1.00  0.00    -0.030 A 
HETATM    7  C   UNL     1     -42.049 -54.568  15.017  1.00  0.00     0.011 A 
HETATM    8  C   UNL     1     -43.353 -55.071  14.985  1.00  0.00     0.024 A 
HETATM    9  C   UNL     1     -44.197 -54.739  13.929  1.00  0.00     0.034 A 
HETATM   10 CL   UNL     1     -45.779 -55.411  13.854  1.00  0.00    -0.084 Cl
HETATM   11  C   UNL     1     -43.759 -53.886  12.919  1.00  0.00     0.024 A 
HETATM   12  C   UNL     1     -42.454 -53.385  12.949  1.00  0.00     0.011 A 
ENDBRANCH   4   6
ENDBRANCH   3   4
ENDBRANCH   2   3
ENDBRANCH   1   2
BRANCH   1  13
HETATM   13  O   UNL     1     -40.787 -51.170  10.995  1.00  0.00    -0.392 OA
HETATM   14  H   UNL     1     -40.981 -52.001  11.471  1.00  0.00     0.210 HD
ENDBRANCH   1  13
BRANCH   1  15
HETATM   15  C   UNL     1     -41.069 -49.300  12.523  1.00  0.00     0.166 C 
BRANCH  15  16
HETATM   16  N   UNL     1     -40.756 -47.943  12.084  1.00  0.00    -0.307 N 
HETATM   17  C   UNL     1     -41.033 -47.561  10.800  1.00  0.00     0.186 A 
HETATM   18  N   UNL     1     -40.764 -46.404  10.297  1.00  0.00    -0.355 N 
HETATM   19  C   UNL     1     -40.132 -45.492  11.107  1.00  0.00     0.017 A 
ATOM     20  HN  UNL     1     -41.012 -46.175   9.334  1.00  0.00     0.166 HD
HETATM   21  C   UNL     1     -39.875 -44.164  10.447  1.00  0.00     0.069 C 
HETATM   22  C   UNL     1     -39.761 -45.748  12.376  1.00  0.00     0.028 A 
HETATM   23  C   UNL     1     -39.056 -44.809  13.303  1.00  0.00     0.056 C 
HETATM   24  C   UNL     1     -40.069 -47.098  12.924  1.00  0.00     0.256 A 
HETATM   25  O   UNL     1     -39.712 -47.413  14.059  1.00  0.00    -0.267 OA
ENDBRANCH  15  16
ENDBRANCH   1  15
TORSDOF 7
ENDMDL
MODEL 4
REMARK VINA RESULT:      -5.3      3.190      4.692
REMARK  7 active torsions:
REMARK  status: ('A' for Active; 'I' for Inactive)
REMARK    1  A    between atoms: C_2  and  O_3 
REMARK    2  A    between atoms: C_2  and  C_18 
REMARK    3  A    between atoms: O_3  and  C_4 
REMARK    4  A    between atoms: C_4  and  C_5 
REMARK    5  A    between atoms: C_5  and  O_6 
REMARK    6  A    between atoms: C_5  and  C_7 
REMARK    7  A    between atoms: C_7  and  N_8 
ROOT
HETATM    1  C   UNL     1     -39.853 -53.314  13.526  1.00  0.00     0.160 C 
ENDROOT
BRANCH   1   2
HETATM    2  C   UNL     1     -38.897 -52.221  14.021  1.00  0.00     0.201 C 
BRANCH   2   3
HETATM    3  O   UNL     1     -39.414 -50.939  13.628  1.00  0.00    -0.379 OA
BRANCH   3   4
HETATM    4  C   UNL     1     -39.117 -50.592  12.266  1.00  0.00     0.150 C 
HETATM    5  C   UNL     1     -37.622 -50.334  12.059  1.00  0.00     0.045 C 
BRANCH   4   6
HETATM    6  C   UNL     1     -39.868 -49.324  11.883  1.00  0.00    -0.030 A 
HETATM    7  C   UNL     1     -41.048 -49.415  11.125  1.00  0.00     0.011 A 
HETATM    8  C   UNL     1     -41.657 -48.266  10.612  1.00  0.00     0.024 A 
HETATM    9  C   UNL     1     -41.096 -47.016  10.860  1.00  0.00     0.034 A 
HETATM   10 CL   UNL     1     -41.806 -45.608  10.174  1.00  0.00    -0.084 Cl
HETATM   11  C   UNL     1     -39.947 -46.903  11.639  1.00  0.00     0.024 A 
HETATM   12  C   UNL     1     -39.336 -48.052  12.150  1.00  0.00     0.011 A 
ENDBRANCH   4   6
ENDBRANCH   3   4
ENDBRANCH   2   3
ENDBRANCH   1   2
BRANCH   1  13
HETATM   13  O   UNL     1     -39.092 -54.510  13.296  1.00  0.00    -0.392 OA
HETATM   14  H   UNL     1     -38.776 -54.802  14.173  1.00  0.00     0.210 HD
ENDBRANCH   1  13
BRANCH   1  15
HETATM   15  C   UNL     1     -40.961 -53.595  14.553  1.00  0.00     0.166 C 
BRANCH  15  16
HETATM   16  N   UNL     1     -42.291 -53.420  13.976  1.00  0.00    -0.307 N 
HETATM   17  C   UNL     1     -42.594 -52.273  13.295  1.00  0.00     0.186 A 
HETATM   18  N   UNL     1     -43.744 -51.998  12.781  1.00  0.00    -0.355 N 
HETATM   19  C   UNL     1     -44.750 -52.919  12.947  1.00  0.00     0.017 A 
ATOM     20  HN  UNL     1     -43.901 -51.130  12.269  1.00  0.00     0.166 HD
HETATM   21  C   UNL     1     -46.050 -52.528  12.299  1.00  0.00     0.069 C 
HETATM   22  C   UNL     1     -44.605 -54.069  13.633  1.00  0.00     0.028 A 
HETATM   23  C   UNL     1     -45.660 -55.104  13.866  1.00  0.00     0.056 C 
HETATM   24  C   UNL     1     -43.271 -54.352  14.231  1.00  0.00     0.256 A 
HETATM   25  O   UNL     1     -43.087 -55.360  14.911  1.00  0.00    -0.267 OA
ENDBRANCH  15  16
ENDBRANCH   1  15
TORSDOF 7
ENDMDL
MODEL 5
REMARK VINA RESULT:      -5.3      2.358      4.536
REMARK  7 active torsions:
REMARK  status: ('A' for Active; 'I' for Inactive)
REMARK    1  A    between atoms: C_2  and  O_3 
REMARK    2  A    between atoms: C_2  and  C_18 
REMARK    3  A    between atoms: O_3  and  C_4 
REMARK    4  A    between atoms: C_4  and  C_5 
REMARK    5  A    between atoms: C_5  and  O_6 
REMARK    6  A    between atoms: C_5  and  C_7 
REMARK    7  A    between atoms: C_7  and  N_8 
ROOT
HETATM    1  C   UNL     1     -42.966 -54.012  13.813  1.00  0.00     0.160 C 
ENDROOT
BRANCH   1   2
HETATM    2  C   UNL     1     -44.126 -54.007  12.810  1.00  0.00     0.201 C 
BRANCH   2   3
HETATM    3  O   UNL     1     -44.612 -52.663  12.668  1.00  0.00    -0.379 OA
BRANCH   3   4
HETATM    4  C   UNL     1     -45.975 -52.496  13.093  1.00  0.00     0.150 C 
HETATM    5  C   UNL     1     -46.804 -51.732  12.058  1.00  0.00     0.045 C 
BRANCH   4   6
HETATM    6  C   UNL     1     -46.013 -51.709  14.396  1.00  0.00    -0.030 A 
HETATM    7  C   UNL     1     -44.875 -50.999  14.816  1.00  0.00     0.011 A 
HETATM    8  C   UNL     1     -44.825 -50.418  16.086  1.00  0.00     0.024 A 
HETATM    9  C   UNL     1     -45.916 -50.533  16.943  1.00  0.00     0.034 A 
HETATM   10 CL   UNL     1     -45.830 -49.876  18.531  1.00  0.00    -0.084 Cl
HETATM   11  C   UNL     1     -47.067 -51.201  16.532  1.00  0.00     0.024 A 
HETATM   12  C   UNL     1     -47.116 -51.786  15.263  1.00  0.00     0.011 A 
ENDBRANCH   4   6
ENDBRANCH   3   4
ENDBRANCH   2   3
ENDBRANCH   1   2
BRANCH   1  13
HETATM   13  O   UNL     1     -43.191 -55.066  14.762  1.00  0.00    -0.392 OA
HETATM   14  H   UNL     1     -43.333 -54.627  15.624  1.00  0.00     0.210 HD
ENDBRANCH   1  13
BRANCH   1  15
HETATM   15  C   UNL     1     -41.618 -54.232  13.107  1.00  0.00     0.166 C 
BRANCH  15  16
HETATM   16  N   UNL     1     -40.924 -52.971  12.858  1.00  0.00    -0.307 N 
HETATM   17  C   UNL     1     -41.238 -52.226  11.754  1.00  0.00     0.186 A 
HETATM   18  N   UNL     1     -40.664 -51.122  11.419  1.00  0.00    -0.355 N 
HETATM   19  C   UNL     1     -39.644 -50.668  12.219  1.00  0.00     0.017 A 
ATOM     20  HN  UNL     1     -40.957 -50.604  10.590  1.00  0.00     0.166 HD
HETATM   21  C   UNL     1     -39.044 -49.364  11.766  1.00  0.00     0.069 C 
HETATM   22  C   UNL     1     -39.202 -51.322  13.310  1.00  0.00     0.028 A 
HETATM   23  C   UNL     1     -38.088 -50.894  14.212  1.00  0.00     0.056 C 
HETATM   24  C   UNL     1     -39.872 -52.604  13.664  1.00  0.00     0.256 A 
HETATM   25  O   UNL     1     -39.483 -53.275  14.619  1.00  0.00    -0.267 OA
ENDBRANCH  15  16
ENDBRANCH   1  15
TORSDOF 7
ENDMDL
MODEL 6
REMARK VINA RESULT:      -5.3      1.915      2.759
REMARK  7 active torsions:
REMARK  status: ('A' for Active; 'I' for Inactive)
REMARK    1  A    between atoms: C_2  and  O_3 
REMARK    2  A    between atoms: C_2  and  C_18 
REMARK    3  A    between atoms: O_3  and  C_4 
REMARK    4  A    between atoms: C_4  and  C_5 
REMARK    5  A    between atoms: C_5  and  O_6 
REMARK    6  A    between atoms: C_5  and  C_7 
REMARK    7  A    between atoms: C_7  and  N_8 
ROOT
HETATM    1  C   UNL     1     -39.971 -53.509  13.930  1.00  0.00     0.160 C 
ENDROOT
BRANCH   1   2
HETATM    2  C   UNL     1     -39.595 -52.807  15.241  1.00  0.00     0.201 C 
BRANCH   2   3
HETATM    3  O   UNL     1     -40.456 -51.672  15.424  1.00  0.00    -0.379 OA
BRANCH   3   4
HETATM    4  C   UNL     1     -41.175 -51.692  16.668  1.00  0.00     0.150 C 
HETATM    5  C   UNL     1     -40.836 -52.931  17.501  1.00  0.00     0.045 C 
BRANCH   4   6
HETATM    6  C   UNL     1     -42.673 -51.707  16.396  1.00  0.00    -0.030 A 
HETATM    7  C   UNL     1     -43.221 -50.811  15.461  1.00  0.00     0.011 A 
HETATM    8  C   UNL     1     -44.606 -50.683  15.323  1.00  0.00     0.024 A 
HETATM    9  C   UNL     1     -45.455 -51.457  16.110  1.00  0.00     0.034 A 
HETATM   10 CL   UNL     1     -47.159 -51.252  15.989  1.00  0.00    -0.084 Cl
HETATM   11  C   UNL     1     -44.931 -52.376  17.016  1.00  0.00     0.024 A 
HETATM   12  C   UNL     1     -43.546 -52.502  17.157  1.00  0.00     0.011 A 
ENDBRANCH   4   6
ENDBRANCH   3   4
ENDBRANCH   2   3
ENDBRANCH   1   2
BRANCH   1  13
HETATM   13  O   UNL     1     -38.788 -54.114  13.385  1.00  0.00    -0.392 OA
HETATM   14  H   UNL     1     -38.982 -54.284  12.442  1.00  0.00     0.210 HD
ENDBRANCH   1  13
BRANCH   1  15
HETATM   15  C   UNL     1     -41.044 -54.585  14.160  1.00  0.00     0.166 C 
BRANCH  15  16
HETATM   16  N   UNL     1     -42.357 -54.150  13.692  1.00  0.00    -0.307 N 
HETATM   17  C   UNL     1     -42.454 -53.128  12.787  1.00  0.00     0.186 A 
HETATM   18  N   UNL     1     -43.559 -52.640  12.337  1.00  0.00    -0.355 N 
HETATM   19  C   UNL     1     -44.730 -53.171  12.819  1.00  0.00     0.017 A 
ATOM     20  HN  UNL     1     -43.564 -51.886  11.649  1.00  0.00     0.166 HD
HETATM   21  C   UNL     1     -45.970 -52.557  12.228  1.00  0.00     0.069 C 
HETATM   22  C   UNL     1     -44.783 -54.149  13.745  1.00  0.00     0.028 A 
HETATM   23  C   UNL     1     -46.020 -54.758  14.324  1.00  0.00     0.056 C 
HETATM   24  C   UNL     1     -43.491 -54.681  14.259  1.00  0.00     0.256 A 
HETATM   25  O   UNL     1     -43.471 -55.539  15.141  1.00  0.00    -0.267 OA
ENDBRANCH  15  16
ENDBRANCH   1  15
TORSDOF 7
ENDMDL
MODEL 7
REMARK VINA RESULT:      -5.2      3.950      5.556
REMARK  7 active torsions:
REMARK  status: ('A' for Active; 'I' for Inactive)
REMARK    1  A    between atoms: C_2  and  O_3 
REMARK    2  A    between atoms: C_2  and  C_18 
REMARK    3  A    between atoms: O_3  and  C_4 
REMARK    4  A    between atoms: C_4  and  C_5 
REMARK    5  A    between atoms: C_5  and  O_6 
REMARK    6  A    between atoms: C_5  and  C_7 
REMARK    7  A    between atoms: C_7  and  N_8 
ROOT
HETATM    1  C   UNL     1     -40.816 -53.062  12.734  1.00  0.00     0.160 C 
ENDROOT
BRANCH   1   2
HETATM    2  C   UNL     1     -39.569 -52.893  13.611  1.00  0.00     0.201 C 
BRANCH   2   3
HETATM    3  O   UNL     1     -38.675 -51.965  12.974  1.00  0.00    -0.379 OA
BRANCH   3   4
HETATM    4  C   UNL     1     -39.071 -50.592  13.124  1.00  0.00     0.150 C 
HETATM    5  C   UNL     1     -39.149 -49.873  11.774  1.00  0.00     0.045 C 
BRANCH   4   6
HETATM    6  C   UNL     1     -38.055 -49.856  13.987  1.00  0.00    -0.030 A 
HETATM    7  C   UNL     1     -37.412 -50.533  15.038  1.00  0.00     0.011 A 
HETATM    8  C   UNL     1     -36.614 -49.839  15.951  1.00  0.00     0.024 A 
HETATM    9  C   UNL     1     -36.444 -48.464  15.816  1.00  0.00     0.034 A 
HETATM   10 CL   UNL     1     -35.516 -47.598  16.978  1.00  0.00    -0.084 Cl
HETATM   11  C   UNL     1     -37.043 -47.781  14.761  1.00  0.00     0.024 A 
HETATM   12  C   UNL     1     -37.845 -48.474  13.849  1.00  0.00     0.011 A 
ENDBRANCH   4   6
ENDBRANCH   3   4
ENDBRANCH   2   3
ENDBRANCH   1   2
BRANCH   1  13
HETATM   13  O   UNL     1     -40.400 -53.528  11.440  1.00  0.00    -0.392 OA
HETATM   14  H   UNL     1     -39.932 -52.780  11.021  1.00  0.00     0.210 HD
ENDBRANCH   1  13
BRANCH   1  15
HETATM   15  C   UNL     1     -41.803 -54.065  13.352  1.00  0.00     0.166 C 
BRANCH  15  16
HETATM   16  N   UNL     1     -43.152 -53.512  13.441  1.00  0.00    -0.307 N 
HETATM   17  C   UNL     1     -43.406 -52.255  12.965  1.00  0.00     0.186 A 
HETATM   18  N   UNL     1     -44.547 -51.656  13.027  1.00  0.00    -0.355 N 
HETATM   19  C   UNL     1     -45.581 -52.323  13.638  1.00  0.00     0.017 A 
ATOM     20  HN  UNL     1     -44.676 -50.722  12.637  1.00  0.00     0.166 HD
HETATM   21  C   UNL     1     -46.878 -51.561  13.650  1.00  0.00     0.069 C 
HETATM   22  C   UNL     1     -45.460 -53.545  14.191  1.00  0.00     0.028 A 
HETATM   23  C   UNL     1     -46.537 -54.317  14.885  1.00  0.00     0.056 C 
HETATM   24  C   UNL     1     -44.127 -54.205  14.119  1.00  0.00     0.256 A 
HETATM   25  O   UNL     1     -43.938 -55.300  14.648  1.00  0.00    -0.267 OA
ENDBRANCH  15  16
ENDBRANCH   1  15
TORSDOF 7
ENDMDL
MODEL 8
REMARK VINA RESULT:      -5.2      3.626      6.892
REMARK  7 active torsions:
REMARK  status: ('A' for Active; 'I' for Inactive)
REMARK    1  A    between atoms: C_2  and  O_3 
REMARK    2  A    between atoms: C_2  and  C_18 
REMARK    3  A    between atoms: O_3  and  C_4 
REMARK    4  A    between atoms: C_4  and  C_5 
REMARK    5  A    between atoms: C_5  and  O_6 
REMARK    6  A    between atoms: C_5  and  C_7 
REMARK    7  A    between atoms: C_7  and  N_8 
ROOT
HETATM    1  C   UNL     1     -39.913 -50.284  11.997  1.00  0.00     0.160 C 
ENDROOT
BRANCH   1   2
HETATM    2  C   UNL     1     -39.268 -51.362  12.877  1.00  0.00     0.201 C 
BRANCH   2   3
HETATM    3  O   UNL     1     -39.959 -52.605  12.669  1.00  0.00    -0.379 OA
BRANCH   3   4
HETATM    4  C   UNL     1     -40.201 -53.338  13.881  1.00  0.00     0.150 C 
HETATM    5  C   UNL     1     -39.220 -54.501  14.048  1.00  0.00     0.045 C 
BRANCH   4   6
HETATM    6  C   UNL     1     -41.610 -53.914  13.860  1.00  0.00    -0.030 A 
HETATM    7  C   UNL     1     -42.509 -53.521  12.853  1.00  0.00     0.011 A 
HETATM    8  C   UNL     1     -43.854 -53.896  12.912  1.00  0.00     0.024 A 
HETATM    9  C   UNL     1     -44.310 -54.674  13.972  1.00  0.00     0.034 A 
HETATM   10 CL   UNL     1     -45.979 -55.080  14.082  1.00  0.00    -0.084 Cl
HETATM   11  C   UNL     1     -43.428 -55.104  14.960  1.00  0.00     0.024 A 
HETATM   12  C   UNL     1     -42.082 -54.726  14.904  1.00  0.00     0.011 A 
ENDBRANCH   4   6
ENDBRANCH   3   4
ENDBRANCH   2   3
ENDBRANCH   1   2
BRANCH   1  13
HETATM   13  O   UNL     1     -40.760 -50.931  11.034  1.00  0.00    -0.392 OA
HETATM   14  H   UNL     1     -40.334 -51.787  10.832  1.00  0.00     0.210 HD
ENDBRANCH   1  13
BRANCH   1  15
HETATM   15  C   UNL     1     -40.744 -49.300  12.837  1.00  0.00     0.166 C 
BRANCH  15  16
HETATM   16  N   UNL     1     -40.723 -47.954  12.272  1.00  0.00    -0.307 N 
HETATM   17  C   UNL     1     -39.816 -47.036  12.727  1.00  0.00     0.186 A 
HETATM   18  N   UNL     1     -39.736 -45.813  12.328  1.00  0.00    -0.355 N 
HETATM   19  C   UNL     1     -40.644 -45.392  11.388  1.00  0.00     0.017 A 
ATOM     20  HN  UNL     1     -39.024 -45.182  12.696  1.00  0.00     0.166 HD
HETATM   21  C   UNL     1     -40.466 -43.959  10.964  1.00  0.00     0.069 C 
HETATM   22  C   UNL     1     -41.618 -46.174  10.885  1.00  0.00     0.028 A 
HETATM   23  C   UNL     1     -42.647 -45.774   9.876  1.00  0.00     0.056 C 
HETATM   24  C   UNL     1     -41.698 -47.577  11.378  1.00  0.00     0.256 A 
HETATM   25  O   UNL     1     -42.595 -48.328  10.996  1.00  0.00    -0.267 OA
ENDBRANCH  15  16
ENDBRANCH   1  15
TORSDOF 7
ENDMDL
MODEL 9
REMARK VINA RESULT:      -5.1      3.420      6.430
REMARK  7 active torsions:
REMARK  status: ('A' for Active; 'I' for Inactive)
REMARK    1  A    between atoms: C_2  and  O_3 
REMARK    2  A    between atoms: C_2  and  C_18 
REMARK    3  A    between atoms: O_3  and  C_4 
REMARK    4  A    between atoms: C_4  and  C_5 
REMARK    5  A    between atoms: C_5  and  O_6 
REMARK    6  A    between atoms: C_5  and  C_7 
REMARK    7  A    between atoms: C_7  and  N_8 
ROOT
HETATM    1  C   UNL     1     -40.117 -50.427  12.026  1.00  0.00     0.160 C 
ENDROOT
BRANCH   1   2
HETATM    2  C   UNL     1     -39.376 -51.379  12.974  1.00  0.00     0.201 C 
BRANCH   2   3
HETATM    3  O   UNL     1     -39.866 -52.714  12.768  1.00  0.00    -0.379 OA
BRANCH   3   4
HETATM    4  C   UNL     1     -40.146 -53.417  13.989  1.00  0.00     0.150 C 
HETATM    5  C   UNL     1     -39.187 -54.591  14.202  1.00  0.00     0.045 C 
BRANCH   4   6
HETATM    6  C   UNL     1     -41.563 -53.973  13.949  1.00  0.00    -0.030 A 
HETATM    7  C   UNL     1     -42.438 -53.576  12.922  1.00  0.00     0.011 A 
HETATM    8  C   UNL     1     -43.789 -53.931  12.961  1.00  0.00     0.024 A 
HETATM    9  C   UNL     1     -44.276 -54.691  14.021  1.00  0.00     0.034 A 
HETATM   10 CL   UNL     1     -45.952 -55.070  14.105  1.00  0.00    -0.084 Cl
HETATM   11  C   UNL     1     -43.417 -55.123  15.029  1.00  0.00     0.024 A 
HETATM   12  C   UNL     1     -42.066 -54.766  14.993  1.00  0.00     0.011 A 
ENDBRANCH   4   6
ENDBRANCH   3   4
ENDBRANCH   2   3
ENDBRANCH   1   2
BRANCH   1  13
HETATM   13  O   UNL     1     -40.815 -51.214  11.048  1.00  0.00    -0.392 OA
HETATM   14  H   UNL     1     -40.265 -52.008  10.898  1.00  0.00     0.210 HD
ENDBRANCH   1  13
BRANCH   1  15
HETATM   15  C   UNL     1     -41.117 -49.544  12.790  1.00  0.00     0.166 C 
BRANCH  15  16
HETATM   16  N   UNL     1     -41.665 -48.489  11.943  1.00  0.00    -0.307 N 
HETATM   17  C   UNL     1     -42.913 -48.628  11.400  1.00  0.00     0.186 A 
HETATM   18  N   UNL     1     -43.476 -47.779  10.610  1.00  0.00    -0.355 N 
HETATM   19  C   UNL     1     -42.759 -46.657  10.269  1.00  0.00     0.017 A 
ATOM     20  HN  UNL     1     -44.418 -47.934  10.251  1.00  0.00     0.166 HD
HETATM   21  C   UNL     1     -43.498 -45.712   9.361  1.00  0.00     0.069 C 
HETATM   22  C   UNL     1     -41.504 -46.414  10.693  1.00  0.00     0.028 A 
HETATM   23  C   UNL     1     -40.664 -45.226  10.347  1.00  0.00     0.056 C 
HETATM   24  C   UNL     1     -40.873 -47.420  11.591  1.00  0.00     0.256 A 
HETATM   25  O   UNL     1     -39.712 -47.282  11.973  1.00  0.00    -0.267 OA
ENDBRANCH  15  16
ENDBRANCH   1  15
TORSDOF 7
ENDMDL
