MODEL 1
REMARK VINA RESULT:      -6.7      0.000      0.000
REMARK  8 active torsions:
REMARK  status: ('A' for Active; 'I' for Inactive)
REMARK    1  A    between atoms: O_2  and  C_3 
REMARK    2  A    between atoms: C_6  and  O_7 
REMARK    3  A    between atoms: C_9  and  C_11 
REMARK    4  A    between atoms: C_11  and  O_12 
REMARK    5  A    between atoms: C_11  and  C_13 
REMARK    6  A    between atoms: C_13  and  N_14 
REMARK    7  A    between atoms: C_15  and  C_16 
REMARK    8  A    between atoms: C_16  and  O_17 
ROOT
HETATM    1  C   UNL     1     -40.195 -51.859  13.647  1.00  0.00     0.167 C 
ENDROOT
BRANCH   1   2
HETATM    2  C   UNL     1     -40.541 -53.162  12.906  1.00  0.00     0.172 C 
BRANCH   2   3
HETATM    3  C   UNL     1     -41.904 -53.698  13.335  1.00  0.00     0.008 A 
HETATM    4  C   UNL     1     -42.037 -54.509  14.479  1.00  0.00     0.077 A 
HETATM    5  C   UNL     1     -43.298 -54.987  14.846  1.00  0.00     0.040 A 
HETATM    6  C   UNL     1     -44.428 -54.647  14.098  1.00  0.00     0.039 A 
HETATM    7  C   UNL     1     -44.319 -53.829  12.976  1.00  0.00     0.069 A 
HETATM    8  C   UNL     1     -43.062 -53.355  12.604  1.00  0.00     0.049 A 
BRANCH   4   9
HETATM    9  O   UNL     1     -40.878 -54.758  15.170  1.00  0.00    -0.355 OA
HETATM   10  C   UNL     1     -40.818 -54.327  16.526  1.00  0.00     0.210 C 
ENDBRANCH   4   9
BRANCH   7  11
HETATM   11  O   UNL     1     -45.500 -53.562  12.342  1.00  0.00    -0.356 OA
HETATM   12  C   UNL     1     -46.110 -52.308  12.622  1.00  0.00     0.210 C 
ENDBRANCH   7  11
ENDBRANCH   2   3
BRANCH   2  13
HETATM   13  O   UNL     1     -40.529 -52.957  11.480  1.00  0.00    -0.389 OA
HETATM   14  H   UNL     1     -40.936 -52.085  11.329  1.00  0.00     0.210 HD
ENDBRANCH   2  13
ENDBRANCH   1   2
BRANCH   1  15
HETATM   15  N   UNL     1     -40.048 -50.717  12.754  1.00  0.00    -0.330 N 
HETATM   16  C   UNL     1     -38.905 -50.283  12.106  1.00  0.00     0.108 A 
HETATM   17  N   UNL     1     -39.184 -49.256  11.320  1.00  0.00    -0.342 N 
HETATM   18  C   UNL     1     -40.525 -49.027  11.443  1.00  0.00     0.060 A 
ATOM     19  HN  UNL     1     -38.528 -48.737  10.737  1.00  0.00     0.167 HD
HETATM   20  C   UNL     1     -41.326 -48.075  10.793  1.00  0.00     0.032 A 
HETATM   21  C   UNL     1     -41.098 -49.912  12.348  1.00  0.00     0.062 A 
HETATM   22  C   UNL     1     -42.692 -48.032  11.084  1.00  0.00     0.002 A 
HETATM   23  C   UNL     1     -43.248 -48.916  12.009  1.00  0.00     0.002 A 
HETATM   24  C   UNL     1     -42.464 -49.877  12.662  1.00  0.00     0.032 A 
BRANCH  16  25
HETATM   25  C   UNL     1     -37.528 -50.872  12.180  1.00  0.00     0.240 C 
BRANCH  25  26
HETATM   26  O   UNL     1     -37.149 -51.504  10.969  1.00  0.00    -0.393 OA
HETATM   27  H   UNL     1     -36.438 -52.145  11.187  1.00  0.00     0.209 HD
ENDBRANCH  25  26
ENDBRANCH  16  25
ENDBRANCH   1  15
TORSDOF 8
ENDMDL
MODEL 2
REMARK VINA RESULT:      -6.6      2.713      6.611
REMARK  8 active torsions:
REMARK  status: ('A' for Active; 'I' for Inactive)
REMARK    1  A    between atoms: O_2  and  C_3 
REMARK    2  A    between atoms: C_6  and  O_7 
REMARK    3  A    between atoms: C_9  and  C_11 
REMARK    4  A    between atoms: C_11  and  O_12 
REMARK    5  A    between atoms: C_11  and  C_13 
REMARK    6  A    between atoms: C_13  and  N_14 
REMARK    7  A    between atoms: C_15  and  C_16 
REMARK    8  A    between atoms: C_16  and  O_17 
ROOT
HETATM    1  C   UNL     1     -41.809 -50.841  13.332  1.00  0.00     0.167 C 
ENDROOT
BRANCH   1   2
HETATM    2  C   UNL     1     -41.718 -50.134  11.969  1.00  0.00     0.172 C 
BRANCH   2   3
HETATM    3  C   UNL     1     -41.077 -48.756  12.101  1.00  0.00     0.008 A 
HETATM    4  C   UNL     1     -41.162 -47.813  11.057  1.00  0.00     0.077 A 
HETATM    5  C   UNL     1     -40.563 -46.560  11.207  1.00  0.00     0.040 A 
HETATM    6  C   UNL     1     -39.900 -46.229  12.390  1.00  0.00     0.039 A 
HETATM    7  C   UNL     1     -39.824 -47.140  13.442  1.00  0.00     0.069 A 
HETATM    8  C   UNL     1     -40.415 -48.394  13.295  1.00  0.00     0.049 A 
BRANCH   4   9
HETATM    9  O   UNL     1     -41.864 -48.215   9.949  1.00  0.00    -0.355 OA
HETATM   10  C   UNL     1     -43.023 -47.464   9.600  1.00  0.00     0.210 C 
ENDBRANCH   4   9
BRANCH   7  11
HETATM   11  O   UNL     1     -39.159 -46.688  14.547  1.00  0.00    -0.356 OA
HETATM   12  C   UNL     1     -39.309 -45.310  14.867  1.00  0.00     0.210 C 
ENDBRANCH   7  11
ENDBRANCH   2   3
BRANCH   2  13
HETATM   13  O   UNL     1     -40.967 -50.929  11.030  1.00  0.00    -0.389 OA
HETATM   14  H   UNL     1     -40.707 -51.737  11.508  1.00  0.00     0.210 HD
ENDBRANCH   2  13
ENDBRANCH   1   2
BRANCH   1  15
HETATM   15  N   UNL     1     -42.653 -52.028  13.304  1.00  0.00    -0.330 N 
HETATM   16  C   UNL     1     -42.268 -53.343  13.104  1.00  0.00     0.108 A 
HETATM   17  N   UNL     1     -43.310 -54.149  13.224  1.00  0.00    -0.342 N 
HETATM   18  C   UNL     1     -44.382 -53.356  13.520  1.00  0.00     0.060 A 
ATOM     19  HN  UNL     1     -43.313 -55.164  13.116  1.00  0.00     0.167 HD
HETATM   20  C   UNL     1     -45.712 -53.723  13.780  1.00  0.00     0.032 A 
HETATM   21  C   UNL     1     -44.013 -52.018  13.560  1.00  0.00     0.062 A 
HETATM   22  C   UNL     1     -46.644 -52.722  14.065  1.00  0.00     0.002 A 
HETATM   23  C   UNL     1     -46.260 -51.380  14.083  1.00  0.00     0.002 A 
HETATM   24  C   UNL     1     -44.934 -50.998  13.832  1.00  0.00     0.032 A 
BRANCH  16  25
HETATM   25  C   UNL     1     -40.887 -53.867  12.848  1.00  0.00     0.240 C 
BRANCH  25  26
HETATM   26  O   UNL     1     -40.458 -53.622  11.520  1.00  0.00    -0.393 OA
HETATM   27  H   UNL     1     -39.654 -54.165  11.370  1.00  0.00     0.209 HD
ENDBRANCH  25  26
ENDBRANCH  16  25
ENDBRANCH   1  15
TORSDOF 8
ENDMDL
MODEL 3
REMARK VINA RESULT:      -6.6      2.645      4.054
REMARK  8 active torsions:
REMARK  status: ('A' for Active; 'I' for Inactive)
REMARK    1  A    between atoms: O_2  and  C_3 
REMARK    2  A    between atoms: C_6  and  O_7 
REMARK    3  A    between atoms: C_9  and  C_11 
REMARK    4  A    between atoms: C_11  and  O_12 
REMARK    5  A    between atoms: C_11  and  C_13 
REMARK    6  A    between atoms: C_13  and  N_14 
REMARK    7  A    between atoms: C_15  and  C_16 
REMARK    8  A    between atoms: C_16  and  O_17 
ROOT
HETATM    1  C   UNL     1     -42.129 -48.925  11.762  1.00  0.00     0.167 C 
ENDROOT
BRANCH   1   2
HETATM    2  C   UNL     1     -40.986 -49.953  11.728  1.00  0.00     0.172 C 
BRANCH   2   3
HETATM    3  C   UNL     1     -41.441 -51.306  12.266  1.00  0.00     0.008 A 
HETATM    4  C   UNL     1     -40.505 -52.290  12.640  1.00  0.00     0.077 A 
HETATM    5  C   UNL     1     -40.952 -53.521  13.127  1.00  0.00     0.040 A 
HETATM    6  C   UNL     1     -42.319 -53.773  13.265  1.00  0.00     0.039 A 
HETATM    7  C   UNL     1     -43.260 -52.805  12.920  1.00  0.00     0.069 A 
HETATM    8  C   UNL     1     -42.817 -51.577  12.428  1.00  0.00     0.049 A 
BRANCH   4   9
HETATM    9  O   UNL     1     -39.186 -51.939  12.504  1.00  0.00    -0.355 OA
HETATM   10  C   UNL     1     -38.454 -51.668  13.695  1.00  0.00     0.210 C 
ENDBRANCH   4   9
BRANCH   7  11
HETATM   11  O   UNL     1     -44.562 -53.172  13.114  1.00  0.00    -0.356 OA
HETATM   12  C   UNL     1     -44.801 -54.534  13.450  1.00  0.00     0.210 C 
ENDBRANCH   7  11
ENDBRANCH   2   3
BRANCH   2  13
HETATM   13  O   UNL     1     -40.480 -50.110  10.388  1.00  0.00    -0.389 OA
HETATM   14  H   UNL     1     -41.213 -49.871   9.792  1.00  0.00     0.210 HD
ENDBRANCH   2  13
ENDBRANCH   1   2
BRANCH   1  15
HETATM   15  N   UNL     1     -41.770 -47.651  11.153  1.00  0.00    -0.330 N 
HETATM   16  C   UNL     1     -42.278 -47.086   9.996  1.00  0.00     0.108 A 
HETATM   17  N   UNL     1     -41.758 -45.884   9.806  1.00  0.00    -0.342 N 
HETATM   18  C   UNL     1     -40.915 -45.655  10.857  1.00  0.00     0.060 A 
ATOM     19  HN  UNL     1     -41.948 -45.252   9.028  1.00  0.00     0.167 HD
HETATM   20  C   UNL     1     -40.148 -44.516  11.147  1.00  0.00     0.032 A 
HETATM   21  C   UNL     1     -40.882 -46.749  11.713  1.00  0.00     0.062 A 
HETATM   22  C   UNL     1     -39.353 -44.514  12.296  1.00  0.00     0.002 A 
HETATM   23  C   UNL     1     -39.317 -45.628  13.136  1.00  0.00     0.002 A 
HETATM   24  C   UNL     1     -40.082 -46.771  12.863  1.00  0.00     0.032 A 
BRANCH  16  25
HETATM   25  C   UNL     1     -43.311 -47.656   9.073  1.00  0.00     0.240 C 
BRANCH  25  26
HETATM   26  O   UNL     1     -42.735 -48.249   7.922  1.00  0.00    -0.393 OA
HETATM   27  H   UNL     1     -42.308 -49.085   8.209  1.00  0.00     0.209 HD
ENDBRANCH  25  26
ENDBRANCH  16  25
ENDBRANCH   1  15
TORSDOF 8
ENDMDL
MODEL 4
REMARK VINA RESULT:      -6.2      2.469      6.007
REMARK  8 active torsions:
REMARK  status: ('A' for Active; 'I' for Inactive)
REMARK    1  A    between atoms: O_2  and  C_3 
REMARK    2  A    between atoms: C_6  and  O_7 
REMARK    3  A    between atoms: C_9  and  C_11 
REMARK    4  A    between atoms: C_11  and  O_12 
REMARK    5  A    between atoms: C_11  and  C_13 
REMARK    6  A    between atoms: C_13  and  N_14 
REMARK    7  A    between atoms: C_15  and  C_16 
REMARK    8  A    between atoms: C_16  and  O_17 
ROOT
HETATM    1  C   UNL     1     -41.893 -50.848  13.242  1.00  0.00     0.167 C 
ENDROOT
BRANCH   1   2
HETATM    2  C   UNL     1     -41.581 -50.563  11.763  1.00  0.00     0.172 C 
BRANCH   2   3
HETATM    3  C   UNL     1     -41.258 -49.089  11.540  1.00  0.00     0.008 A 
HETATM    4  C   UNL     1     -40.036 -48.540  11.976  1.00  0.00     0.077 A 
HETATM    5  C   UNL     1     -39.769 -47.185  11.759  1.00  0.00     0.040 A 
HETATM    6  C   UNL     1     -40.696 -46.380  11.095  1.00  0.00     0.039 A 
HETATM    7  C   UNL     1     -41.901 -46.909  10.637  1.00  0.00     0.069 A 
HETATM    8  C   UNL     1     -42.173 -48.259  10.856  1.00  0.00     0.049 A 
BRANCH   4   9
HETATM    9  O   UNL     1     -39.175 -49.416  12.586  1.00  0.00    -0.355 OA
HETATM   10  C   UNL     1     -38.623 -49.027  13.840  1.00  0.00     0.210 C 
ENDBRANCH   4   9
BRANCH   7  11
HETATM   11  O   UNL     1     -42.713 -46.019   9.992  1.00  0.00    -0.356 OA
HETATM   12  C   UNL     1     -43.454 -46.513   8.883  1.00  0.00     0.210 C 
ENDBRANCH   7  11
ENDBRANCH   2   3
BRANCH   2  13
HETATM   13  O   UNL     1     -40.480 -51.374  11.308  1.00  0.00    -0.389 OA
HETATM   14  H   UNL     1     -40.484 -51.313  10.336  1.00  0.00     0.210 HD
ENDBRANCH   2  13
ENDBRANCH   1   2
BRANCH   1  15
HETATM   15  N   UNL     1     -42.686 -52.056  13.435  1.00  0.00    -0.330 N 
HETATM   16  C   UNL     1     -42.239 -53.362  13.540  1.00  0.00     0.108 A 
HETATM   17  N   UNL     1     -43.252 -54.176  13.787  1.00  0.00    -0.342 N 
HETATM   18  C   UNL     1     -44.370 -53.393  13.860  1.00  0.00     0.060 A 
ATOM     19  HN  UNL     1     -43.209 -55.189  13.899  1.00  0.00     0.167 HD
HETATM   20  C   UNL     1     -45.695 -53.762  14.138  1.00  0.00     0.032 A 
HETATM   21  C   UNL     1     -44.057 -52.059  13.627  1.00  0.00     0.062 A 
HETATM   22  C   UNL     1     -46.680 -52.772  14.161  1.00  0.00     0.002 A 
HETATM   23  C   UNL     1     -46.352 -51.439  13.906  1.00  0.00     0.002 A 
HETATM   24  C   UNL     1     -45.032 -51.053  13.634  1.00  0.00     0.032 A 
BRANCH  16  25
HETATM   25  C   UNL     1     -40.827 -53.857  13.460  1.00  0.00     0.240 C 
BRANCH  25  26
HETATM   26  O   UNL     1     -40.454 -54.208  12.138  1.00  0.00    -0.393 OA
HETATM   27  H   UNL     1     -39.636 -53.709  11.926  1.00  0.00     0.209 HD
ENDBRANCH  25  26
ENDBRANCH  16  25
ENDBRANCH   1  15
TORSDOF 8
ENDMDL
MODEL 5
REMARK VINA RESULT:      -6.2      1.843      3.240
REMARK  8 active torsions:
REMARK  status: ('A' for Active; 'I' for Inactive)
REMARK    1  A    between atoms: O_2  and  C_3 
REMARK    2  A    between atoms: C_6  and  O_7 
REMARK    3  A    between atoms: C_9  and  C_11 
REMARK    4  A    between atoms: C_11  and  O_12 
REMARK    5  A    between atoms: C_11  and  C_13 
REMARK    6  A    between atoms: C_13  and  N_14 
REMARK    7  A    between atoms: C_15  and  C_16 
REMARK    8  A    between atoms: C_16  and  O_17 
ROOT
HETATM    1  C   UNL     1     -41.028 -51.245  13.378  1.00  0.00     0.167 C 
ENDROOT
BRANCH   1   2
HETATM    2  C   UNL     1     -40.970 -52.753  13.083  1.00  0.00     0.172 C 
BRANCH   2   3
HETATM    3  C   UNL     1     -42.325 -53.416  13.312  1.00  0.00     0.008 A 
HETATM    4  C   UNL     1     -42.482 -54.432  14.275  1.00  0.00     0.077 A 
HETATM    5  C   UNL     1     -43.736 -55.021  14.461  1.00  0.00     0.040 A 
HETATM    6  C   UNL     1     -44.836 -54.595  13.714  1.00  0.00     0.039 A 
HETATM    7  C   UNL     1     -44.705 -53.577  12.772  1.00  0.00     0.069 A 
HETATM    8  C   UNL     1     -43.455 -52.990  12.579  1.00  0.00     0.049 A 
BRANCH   4   9
HETATM    9  O   UNL     1     -41.355 -54.758  14.985  1.00  0.00    -0.355 OA
HETATM   10  C   UNL     1     -41.350 -54.465  16.379  1.00  0.00     0.210 C 
ENDBRANCH   4   9
BRANCH   7  11
HETATM   11  O   UNL     1     -45.859 -53.246  12.119  1.00  0.00    -0.356 OA
HETATM   12  C   UNL     1     -46.503 -52.044  12.524  1.00  0.00     0.210 C 
ENDBRANCH   7  11
ENDBRANCH   2   3
BRANCH   2  13
HETATM   13  O   UNL     1     -40.537 -52.993  11.729  1.00  0.00    -0.389 OA
HETATM   14  H   UNL     1     -39.563 -53.007  11.755  1.00  0.00     0.210 HD
ENDBRANCH   2  13
ENDBRANCH   1   2
BRANCH   1  15
HETATM   15  N   UNL     1     -39.711 -50.641  13.524  1.00  0.00    -0.330 N 
HETATM   16  C   UNL     1     -39.075 -49.763  12.663  1.00  0.00     0.108 A 
HETATM   17  N   UNL     1     -37.918 -49.374  13.176  1.00  0.00    -0.342 N 
HETATM   18  C   UNL     1     -37.805 -49.991  14.389  1.00  0.00     0.060 A 
ATOM     19  HN  UNL     1     -37.244 -48.739  12.749  1.00  0.00     0.167 HD
HETATM   20  C   UNL     1     -36.783 -49.885  15.346  1.00  0.00     0.032 A 
HETATM   21  C   UNL     1     -38.901 -50.808  14.635  1.00  0.00     0.062 A 
HETATM   22  C   UNL     1     -36.889 -50.621  16.529  1.00  0.00     0.002 A 
HETATM   23  C   UNL     1     -37.988 -51.451  16.752  1.00  0.00     0.002 A 
HETATM   24  C   UNL     1     -39.020 -51.564  15.809  1.00  0.00     0.032 A 
BRANCH  16  25
HETATM   25  C   UNL     1     -39.580 -49.232  11.356  1.00  0.00     0.240 C 
BRANCH  25  26
HETATM   26  O   UNL     1     -40.001 -50.266  10.483  1.00  0.00    -0.393 OA
HETATM   27  H   UNL     1     -40.979 -50.210  10.418  1.00  0.00     0.209 HD
ENDBRANCH  25  26
ENDBRANCH  16  25
ENDBRANCH   1  15
TORSDOF 8
ENDMDL
MODEL 6
REMARK VINA RESULT:      -5.9      3.005      6.227
REMARK  8 active torsions:
REMARK  status: ('A' for Active; 'I' for Inactive)
REMARK    1  A    between atoms: O_2  and  C_3 
REMARK    2  A    between atoms: C_6  and  O_7 
REMARK    3  A    between atoms: C_9  and  C_11 
REMARK    4  A    between atoms: C_11  and  O_12 
REMARK    5  A    between atoms: C_11  and  C_13 
REMARK    6  A    between atoms: C_13  and  N_14 
REMARK    7  A    between atoms: C_15  and  C_16 
REMARK    8  A    between atoms: C_16  and  O_17 
ROOT
HETATM    1  C   UNL     1     -41.731 -50.998  13.707  1.00  0.00     0.167 C 
ENDROOT
BRANCH   1   2
HETATM    2  C   UNL     1     -41.560 -50.050  12.508  1.00  0.00     0.172 C 
BRANCH   2   3
HETATM    3  C   UNL     1     -42.063 -48.647  12.836  1.00  0.00     0.008 A 
HETATM    4  C   UNL     1     -42.252 -47.688  11.821  1.00  0.00     0.077 A 
HETATM    5  C   UNL     1     -42.711 -46.411  12.152  1.00  0.00     0.040 A 
HETATM    6  C   UNL     1     -43.004 -46.086  13.478  1.00  0.00     0.039 A 
HETATM    7  C   UNL     1     -42.844 -47.027  14.494  1.00  0.00     0.069 A 
HETATM    8  C   UNL     1     -42.380 -48.301  14.168  1.00  0.00     0.049 A 
BRANCH   4   9
HETATM    9  O   UNL     1     -41.973 -48.110  10.546  1.00  0.00    -0.355 OA
HETATM   10  C   UNL     1     -42.851 -47.684   9.508  1.00  0.00     0.210 C 
ENDBRANCH   4   9
BRANCH   7  11
HETATM   11  O   UNL     1     -43.177 -46.587  15.744  1.00  0.00    -0.356 OA
HETATM   12  C   UNL     1     -43.909 -45.370  15.821  1.00  0.00     0.210 C 
ENDBRANCH   7  11
ENDBRANCH   2   3
BRANCH   2  13
HETATM   13  O   UNL     1     -40.179 -49.986  12.100  1.00  0.00    -0.389 OA
HETATM   14  H   UNL     1     -40.075 -49.136  11.634  1.00  0.00     0.210 HD
ENDBRANCH   2  13
ENDBRANCH   1   2
BRANCH   1  15
HETATM   15  N   UNL     1     -42.639 -52.105  13.433  1.00  0.00    -0.330 N 
HETATM   16  C   UNL     1     -42.323 -53.376  12.986  1.00  0.00     0.108 A 
HETATM   17  N   UNL     1     -43.411 -54.126  12.929  1.00  0.00    -0.342 N 
HETATM   18  C   UNL     1     -44.445 -53.343  13.358  1.00  0.00     0.060 A 
ATOM     19  HN  UNL     1     -43.468 -55.098  12.625  1.00  0.00     0.167 HD
HETATM   20  C   UNL     1     -45.800 -53.673  13.521  1.00  0.00     0.032 A 
HETATM   21  C   UNL     1     -44.003 -52.063  13.666  1.00  0.00     0.062 A 
HETATM   22  C   UNL     1     -46.682 -52.692  13.981  1.00  0.00     0.002 A 
HETATM   23  C   UNL     1     -46.224 -51.406  14.268  1.00  0.00     0.002 A 
HETATM   24  C   UNL     1     -44.873 -51.061  14.117  1.00  0.00     0.032 A 
BRANCH  16  25
HETATM   25  C   UNL     1     -40.967 -53.922  12.655  1.00  0.00     0.240 C 
BRANCH  25  26
HETATM   26  O   UNL     1     -40.509 -53.486  11.386  1.00  0.00    -0.393 OA
HETATM   27  H   UNL     1     -39.691 -52.964  11.536  1.00  0.00     0.209 HD
ENDBRANCH  25  26
ENDBRANCH  16  25
ENDBRANCH   1  15
TORSDOF 8
ENDMDL
MODEL 7
REMARK VINA RESULT:      -5.9      1.741      2.163
REMARK  8 active torsions:
REMARK  status: ('A' for Active; 'I' for Inactive)
REMARK    1  A    between atoms: O_2  and  C_3 
REMARK    2  A    between atoms: C_6  and  O_7 
REMARK    3  A    between atoms: C_9  and  C_11 
REMARK    4  A    between atoms: C_11  and  O_12 
REMARK    5  A    between atoms: C_11  and  C_13 
REMARK    6  A    between atoms: C_13  and  N_14 
REMARK    7  A    between atoms: C_15  and  C_16 
REMARK    8  A    between atoms: C_16  and  O_17 
ROOT
HETATM    1  C   UNL     1     -41.511 -51.483  12.005  1.00  0.00     0.167 C 
ENDROOT
BRANCH   1   2
HETATM    2  C   UNL     1     -40.925 -52.844  12.419  1.00  0.00     0.172 C 
BRANCH   2   3
HETATM    3  C   UNL     1     -41.908 -53.629  13.282  1.00  0.00     0.008 A 
HETATM    4  C   UNL     1     -41.501 -54.208  14.501  1.00  0.00     0.077 A 
HETATM    5  C   UNL     1     -42.423 -54.924  15.269  1.00  0.00     0.040 A 
HETATM    6  C   UNL     1     -43.748 -55.050  14.848  1.00  0.00     0.039 A 
HETATM    7  C   UNL     1     -44.175 -54.467  13.657  1.00  0.00     0.069 A 
HETATM    8  C   UNL     1     -43.257 -53.757  12.884  1.00  0.00     0.049 A 
BRANCH   4   9
HETATM    9  O   UNL     1     -40.190 -54.000  14.849  1.00  0.00    -0.355 OA
HETATM   10  C   UNL     1     -39.927 -53.031  15.859  1.00  0.00     0.210 C 
ENDBRANCH   4   9
BRANCH   7  11
HETATM   11  O   UNL     1     -45.497 -54.654  13.366  1.00  0.00    -0.356 OA
HETATM   12  C   UNL     1     -46.398 -54.679  14.466  1.00  0.00     0.210 C 
ENDBRANCH   7  11
ENDBRANCH   2   3
BRANCH   2  13
HETATM   13  O   UNL     1     -40.572 -53.622  11.258  1.00  0.00    -0.389 OA
HETATM   14  H   UNL     1     -40.190 -54.453  11.597  1.00  0.00     0.210 HD
ENDBRANCH   2  13
ENDBRANCH   1   2
BRANCH   1  15
HETATM   15  N   UNL     1     -41.037 -50.383  12.835  1.00  0.00    -0.330 N 
HETATM   16  C   UNL     1     -39.886 -49.630  12.677  1.00  0.00     0.108 A 
HETATM   17  N   UNL     1     -39.838 -48.670  13.586  1.00  0.00    -0.342 N 
HETATM   18  C   UNL     1     -40.976 -48.785  14.333  1.00  0.00     0.060 A 
ATOM     19  HN  UNL     1     -39.097 -47.979  13.706  1.00  0.00     0.167 HD
HETATM   20  C   UNL     1     -41.422 -47.987  15.399  1.00  0.00     0.032 A 
HETATM   21  C   UNL     1     -41.744 -49.860  13.904  1.00  0.00     0.062 A 
HETATM   22  C   UNL     1     -42.636 -48.304  16.015  1.00  0.00     0.002 A 
HETATM   23  C   UNL     1     -43.386 -49.398  15.583  1.00  0.00     0.002 A 
HETATM   24  C   UNL     1     -42.957 -50.201  14.517  1.00  0.00     0.032 A 
BRANCH  16  25
HETATM   25  C   UNL     1     -38.831 -49.776  11.623  1.00  0.00     0.240 C 
BRANCH  25  26
HETATM   26  O   UNL     1     -38.094 -50.978  11.764  1.00  0.00    -0.393 OA
HETATM   27  H   UNL     1     -37.781 -51.234  10.869  1.00  0.00     0.209 HD
ENDBRANCH  25  26
ENDBRANCH  16  25
ENDBRANCH   1  15
TORSDOF 8
ENDMDL
MODEL 8
REMARK VINA RESULT:      -5.9      1.928      3.332
REMARK  8 active torsions:
REMARK  status: ('A' for Active; 'I' for Inactive)
REMARK    1  A    between atoms: O_2  and  C_3 
REMARK    2  A    between atoms: C_6  and  O_7 
REMARK    3  A    between atoms: C_9  and  C_11 
REMARK    4  A    between atoms: C_11  and  O_12 
REMARK    5  A    between atoms: C_11  and  C_13 
REMARK    6  A    between atoms: C_13  and  N_14 
REMARK    7  A    between atoms: C_15  and  C_16 
REMARK    8  A    between atoms: C_16  and  O_17 
ROOT
HETATM    1  C   UNL     1     -41.540 -51.405  12.072  1.00  0.00     0.167 C 
ENDROOT
BRANCH   1   2
HETATM    2  C   UNL     1     -40.944 -52.780  12.418  1.00  0.00     0.172 C 
BRANCH   2   3
HETATM    3  C   UNL     1     -41.907 -53.602  13.271  1.00  0.00     0.008 A 
HETATM    4  C   UNL     1     -41.478 -54.210  14.467  1.00  0.00     0.077 A 
HETATM    5  C   UNL     1     -42.383 -54.958  15.226  1.00  0.00     0.040 A 
HETATM    6  C   UNL     1     -43.711 -55.089  14.816  1.00  0.00     0.039 A 
HETATM    7  C   UNL     1     -44.159 -54.477  13.647  1.00  0.00     0.069 A 
HETATM    8  C   UNL     1     -43.259 -53.735  12.885  1.00  0.00     0.049 A 
BRANCH   4   9
HETATM    9  O   UNL     1     -40.167 -53.996  14.806  1.00  0.00    -0.355 OA
HETATM   10  C   UNL     1     -39.490 -55.040  15.500  1.00  0.00     0.210 C 
ENDBRANCH   4   9
BRANCH   7  11
HETATM   11  O   UNL     1     -45.483 -54.672  13.367  1.00  0.00    -0.356 OA
HETATM   12  C   UNL     1     -46.379 -54.671  14.472  1.00  0.00     0.210 C 
ENDBRANCH   7  11
ENDBRANCH   2   3
BRANCH   2  13
HETATM   13  O   UNL     1     -40.616 -53.511  11.220  1.00  0.00    -0.389 OA
HETATM   14  H   UNL     1     -41.242 -53.207  10.538  1.00  0.00     0.210 HD
ENDBRANCH   2  13
ENDBRANCH   1   2
BRANCH   1  15
HETATM   15  N   UNL     1     -41.232 -50.385  13.066  1.00  0.00    -0.330 N 
HETATM   16  C   UNL     1     -42.043 -49.916  14.086  1.00  0.00     0.108 A 
HETATM   17  N   UNL     1     -41.385 -49.042  14.830  1.00  0.00    -0.342 N 
HETATM   18  C   UNL     1     -40.128 -48.951  14.302  1.00  0.00     0.060 A 
ATOM     19  HN  UNL     1     -41.745 -48.536  15.639  1.00  0.00     0.167 HD
HETATM   20  C   UNL     1     -39.034 -48.191  14.743  1.00  0.00     0.032 A 
HETATM   21  C   UNL     1     -40.001 -49.764  13.183  1.00  0.00     0.062 A 
HETATM   22  C   UNL     1     -37.833 -48.262  14.032  1.00  0.00     0.002 A 
HETATM   23  C   UNL     1     -37.728 -49.071  12.899  1.00  0.00     0.002 A 
HETATM   24  C   UNL     1     -38.809 -49.841  12.449  1.00  0.00     0.032 A 
BRANCH  16  25
HETATM   25  C   UNL     1     -43.447 -50.332  14.407  1.00  0.00     0.240 C 
BRANCH  25  26
HETATM   26  O   UNL     1     -43.496 -51.313  15.429  1.00  0.00    -0.393 OA
HETATM   27  H   UNL     1     -44.126 -50.991  16.110  1.00  0.00     0.209 HD
ENDBRANCH  25  26
ENDBRANCH  16  25
ENDBRANCH   1  15
TORSDOF 8
ENDMDL
MODEL 9
REMARK VINA RESULT:      -5.8      2.529      5.758
REMARK  8 active torsions:
REMARK  status: ('A' for Active; 'I' for Inactive)
REMARK    1  A    between atoms: O_2  and  C_3 
REMARK    2  A    between atoms: C_6  and  O_7 
REMARK    3  A    between atoms: C_9  and  C_11 
REMARK    4  A    between atoms: C_11  and  O_12 
REMARK    5  A    between atoms: C_11  and  C_13 
REMARK    6  A    between atoms: C_13  and  N_14 
REMARK    7  A    between atoms: C_15  and  C_16 
REMARK    8  A    between atoms: C_16  and  O_17 
ROOT
HETATM    1  C   UNL     1     -40.907 -52.718  11.852  1.00  0.00     0.167 C 
ENDROOT
BRANCH   1   2
HETATM    2  C   UNL     1     -41.172 -51.214  12.037  1.00  0.00     0.172 C 
BRANCH   2   3
HETATM    3  C   UNL     1     -40.528 -50.691  13.317  1.00  0.00     0.008 A 
HETATM    4  C   UNL     1     -41.315 -50.299  14.418  1.00  0.00     0.077 A 
HETATM    5  C   UNL     1     -40.697 -49.823  15.577  1.00  0.00     0.040 A 
HETATM    6  C   UNL     1     -39.304 -49.753  15.657  1.00  0.00     0.039 A 
HETATM    7  C   UNL     1     -38.508 -50.156  14.587  1.00  0.00     0.069 A 
HETATM    8  C   UNL     1     -39.122 -50.627  13.428  1.00  0.00     0.049 A 
BRANCH   4   9
HETATM    9  O   UNL     1     -42.671 -50.438  14.259  1.00  0.00    -0.355 OA
HETATM   10  C   UNL     1     -43.421 -50.880  15.386  1.00  0.00     0.210 C 
ENDBRANCH   4   9
BRANCH   7  11
HETATM   11  O   UNL     1     -37.162 -50.050  14.800  1.00  0.00    -0.356 OA
HETATM   12  C   UNL     1     -36.727 -48.983  15.634  1.00  0.00     0.210 C 
ENDBRANCH   7  11
ENDBRANCH   2   3
BRANCH   2  13
HETATM   13  O   UNL     1     -40.680 -50.466  10.907  1.00  0.00    -0.389 OA
HETATM   14  H   UNL     1     -40.944 -50.968  10.115  1.00  0.00     0.210 HD
ENDBRANCH   2  13
ENDBRANCH   1   2
BRANCH   1  15
HETATM   15  N   UNL     1     -41.463 -53.531  12.926  1.00  0.00    -0.330 N 
HETATM   16  C   UNL     1     -40.784 -54.173  13.947  1.00  0.00     0.108 A 
HETATM   17  N   UNL     1     -41.640 -54.751  14.775  1.00  0.00    -0.342 N 
HETATM   18  C   UNL     1     -42.889 -54.469  14.300  1.00  0.00     0.060 A 
ATOM     19  HN  UNL     1     -41.412 -55.299  15.605  1.00  0.00     0.167 HD
HETATM   20  C   UNL     1     -44.140 -54.818  14.833  1.00  0.00     0.032 A 
HETATM   21  C   UNL     1     -42.818 -53.722  13.131  1.00  0.00     0.062 A 
HETATM   22  C   UNL     1     -45.296 -54.410  14.162  1.00  0.00     0.002 A 
HETATM   23  C   UNL     1     -45.207 -53.675  12.979  1.00  0.00     0.002 A 
HETATM   24  C   UNL     1     -43.965 -53.313  12.437  1.00  0.00     0.032 A 
BRANCH  16  25
HETATM   25  C   UNL     1     -39.305 -54.206  14.188  1.00  0.00     0.240 C 
BRANCH  25  26
HETATM   26  O   UNL     1     -38.686 -55.325  13.575  1.00  0.00    -0.393 OA
HETATM   27  H   UNL     1     -37.734 -55.296  13.813  1.00  0.00     0.209 HD
ENDBRANCH  25  26
ENDBRANCH  16  25
ENDBRANCH   1  15
TORSDOF 8
ENDMDL
