MODEL 1
REMARK VINA RESULT:      -6.6      0.000      0.000
REMARK  5 active torsions:
REMARK  status: ('A' for Active; 'I' for Inactive)
REMARK    1  A    between atoms: C_2  and  N_4 
REMARK    2  A    between atoms: N_4  and  C_5 
REMARK    3  A    between atoms: N_12  and  C_13 
REMARK    4  A    between atoms: C_13  and  C_14 
REMARK    5  A    between atoms: C_14  and  O_15 
ROOT
HETATM    1  C   UNL     1     -42.344 -48.417  10.812  1.00  0.00     0.112 A 
HETATM    2  N   UNL     1     -43.420 -48.352  11.644  1.00  0.00    -0.341 N 
ATOM      3  HN  UNL     1     -44.190 -47.712  11.446  1.00  0.00     0.167 HD
HETATM    4  C   UNL     1     -43.453 -49.147  12.735  1.00  0.00     0.183 A 
HETATM    5  N   UNL     1     -42.547 -50.057  13.128  1.00  0.00    -0.336 N 
ATOM      6  HN  UNL     1     -42.634 -50.637  13.962  1.00  0.00     0.168 HD
HETATM    7  C   UNL     1     -41.514 -50.101  12.274  1.00  0.00     0.140 A 
HETATM    8  N   UNL     1     -40.430 -50.925  12.322  1.00  0.00    -0.324 N 
HETATM    9  C   UNL     1     -39.598 -50.582  11.289  1.00  0.00     0.185 A 
HETATM   10  N   UNL     1     -40.125 -49.645  10.528  1.00  0.00    -0.346 N 
ATOM     11  HN  UNL     1     -39.734 -49.241   9.676  1.00  0.00     0.167 HD
HETATM   12  C   UNL     1     -41.326 -49.329  11.139  1.00  0.00     0.116 A 
ENDROOT
BRANCH   8  13
HETATM   13  C   UNL     1     -40.153 -51.902  13.351  1.00  0.00     0.169 C 
BRANCH  13  14
HETATM   14  C   UNL     1     -40.738 -53.319  13.118  1.00  0.00     0.074 C 
HETATM   15  C   UNL     1     -42.250 -53.493  13.369  1.00  0.00     0.040 C 
HETATM   16  C   UNL     1     -42.664 -53.372  14.839  1.00  0.00     0.007 C 
HETATM   17  C   UNL     1     -41.819 -54.227  15.799  1.00  0.00    -0.019 C 
HETATM   18  C   UNL     1     -42.224 -55.705  15.773  1.00  0.00     0.010 C 
HETATM   19  C   UNL     1     -40.321 -54.073  15.515  1.00  0.00     0.007 C 
HETATM   20  C   UNL     1     -39.985 -54.301  14.039  1.00  0.00     0.040 C 
BRANCH  14  21
HETATM   21  O   UNL     1     -40.456 -53.720  11.770  1.00  0.00    -0.388 OA
HETATM   22  H   UNL     1     -40.024 -54.598  11.788  1.00  0.00     0.210 HD
ENDBRANCH  14  21
ENDBRANCH  13  14
ENDBRANCH   8  13
BRANCH   1  23
HETATM   23  N   UNL     1     -42.264 -47.600   9.682  1.00  0.00    -0.273 NA
HETATM   24  H   UNL     1     -41.440 -47.839   9.129  1.00  0.00     0.129 HD
BRANCH  23  25
HETATM   25  C   UNL     1     -43.503 -47.381   8.945  1.00  0.00     0.053 C 
HETATM   26  C   UNL     1     -43.771 -45.880   8.912  1.00  0.00     0.026 C 
HETATM   27  C   UNL     1     -43.378 -47.944   7.531  1.00  0.00     0.026 C 
ENDBRANCH  23  25
ENDBRANCH   1  23
TORSDOF 5
ENDMDL
MODEL 2
REMARK VINA RESULT:      -6.5      3.436      5.225
REMARK  5 active torsions:
REMARK  status: ('A' for Active; 'I' for Inactive)
REMARK    1  A    between atoms: C_2  and  N_4 
REMARK    2  A    between atoms: N_4  and  C_5 
REMARK    3  A    between atoms: N_12  and  C_13 
REMARK    4  A    between atoms: C_13  and  C_14 
REMARK    5  A    between atoms: C_14  and  O_15 
ROOT
HETATM    1  C   UNL     1     -40.046 -51.777  12.962  1.00  0.00     0.112 A 
HETATM    2  N   UNL     1     -39.579 -51.744  14.241  1.00  0.00    -0.341 N 
ATOM      3  HN  UNL     1     -38.660 -51.351  14.446  1.00  0.00     0.167 HD
HETATM    4  C   UNL     1     -40.351 -52.238  15.232  1.00  0.00     0.183 A 
HETATM    5  N   UNL     1     -41.585 -52.761  15.143  1.00  0.00    -0.336 N 
ATOM      6  HN  UNL     1     -42.124 -53.111  15.935  1.00  0.00     0.168 HD
HETATM    7  C   UNL     1     -42.012 -52.759  13.871  1.00  0.00     0.140 A 
HETATM    8  N   UNL     1     -43.223 -53.172  13.401  1.00  0.00    -0.324 N 
HETATM    9  C   UNL     1     -43.204 -53.051  12.036  1.00  0.00     0.185 A 
HETATM   10  N   UNL     1     -42.085 -52.503  11.610  1.00  0.00    -0.346 N 
ATOM     11  HN  UNL     1     -41.834 -52.265  10.650  1.00  0.00     0.167 HD
HETATM   12  C   UNL     1     -41.325 -52.320  12.752  1.00  0.00     0.116 A 
ENDROOT
BRANCH   8  13
HETATM   13  C   UNL     1     -44.288 -53.748  14.190  1.00  0.00     0.169 C 
BRANCH  13  14
HETATM   14  C   UNL     1     -45.688 -53.106  14.014  1.00  0.00     0.074 C 
HETATM   15  C   UNL     1     -45.756 -51.566  14.073  1.00  0.00     0.040 C 
HETATM   16  C   UNL     1     -45.466 -50.975  15.456  1.00  0.00     0.007 C 
HETATM   17  C   UNL     1     -46.262 -51.630  16.597  1.00  0.00    -0.019 C 
HETATM   18  C   UNL     1     -47.711 -51.136  16.655  1.00  0.00     0.010 C 
HETATM   19  C   UNL     1     -46.217 -53.160  16.505  1.00  0.00     0.007 C 
HETATM   20  C   UNL     1     -46.611 -53.668  15.117  1.00  0.00     0.040 C 
BRANCH  14  21
HETATM   21  O   UNL     1     -46.238 -53.534  12.760  1.00  0.00    -0.388 OA
HETATM   22  H   UNL     1     -45.632 -54.188  12.359  1.00  0.00     0.210 HD
ENDBRANCH  14  21
ENDBRANCH  13  14
ENDBRANCH   8  13
BRANCH   1  23
HETATM   23  N   UNL     1     -39.272 -51.291  11.906  1.00  0.00    -0.273 NA
HETATM   24  H   UNL     1     -39.787 -51.357  11.028  1.00  0.00     0.129 HD
BRANCH  23  25
HETATM   25  C   UNL     1     -38.547 -50.048  12.145  1.00  0.00     0.053 C 
HETATM   26  C   UNL     1     -37.360 -50.004  11.189  1.00  0.00     0.026 C 
HETATM   27  C   UNL     1     -39.471 -48.852  11.922  1.00  0.00     0.026 C 
ENDBRANCH  23  25
ENDBRANCH   1  23
TORSDOF 5
ENDMDL
MODEL 3
REMARK VINA RESULT:      -6.4      4.436      8.490
REMARK  5 active torsions:
REMARK  status: ('A' for Active; 'I' for Inactive)
REMARK    1  A    between atoms: C_2  and  N_4 
REMARK    2  A    between atoms: N_4  and  C_5 
REMARK    3  A    between atoms: N_12  and  C_13 
REMARK    4  A    between atoms: C_13  and  C_14 
REMARK    5  A    between atoms: C_14  and  O_15 
ROOT
HETATM    1  C   UNL     1     -41.381 -48.539  10.856  1.00  0.00     0.112 A 
HETATM    2  N   UNL     1     -42.659 -48.907  11.147  1.00  0.00    -0.341 N 
ATOM      3  HN  UNL     1     -42.903 -49.893  11.249  1.00  0.00     0.167 HD
HETATM    4  C   UNL     1     -43.598 -47.949  11.299  1.00  0.00     0.183 A 
HETATM    5  N   UNL     1     -43.446 -46.617  11.227  1.00  0.00    -0.336 N 
ATOM      6  HN  UNL     1     -44.197 -45.940  11.361  1.00  0.00     0.168 HD
HETATM    7  C   UNL     1     -42.172 -46.297  10.955  1.00  0.00     0.140 A 
HETATM    8  N   UNL     1     -41.633 -45.050  10.848  1.00  0.00    -0.324 N 
HETATM    9  C   UNL     1     -40.316 -45.193  10.500  1.00  0.00     0.185 A 
HETATM   10  N   UNL     1     -39.955 -46.459  10.464  1.00  0.00    -0.346 N 
ATOM     11  HN  UNL     1     -39.026 -46.837  10.273  1.00  0.00     0.167 HD
HETATM   12  C   UNL     1     -41.113 -47.164  10.742  1.00  0.00     0.116 A 
ENDROOT
BRANCH   8  13
HETATM   13  C   UNL     1     -42.354 -43.802  10.960  1.00  0.00     0.169 C 
BRANCH  13  14
HETATM   14  C   UNL     1     -42.516 -43.238  12.395  1.00  0.00     0.074 C 
HETATM   15  C   UNL     1     -43.284 -41.907  12.533  1.00  0.00     0.040 C 
HETATM   16  C   UNL     1     -42.552 -40.694  11.951  1.00  0.00     0.007 C 
HETATM   17  C   UNL     1     -41.090 -40.565  12.410  1.00  0.00    -0.019 C 
HETATM   18  C   UNL     1     -40.973 -39.996  13.828  1.00  0.00     0.010 C 
HETATM   19  C   UNL     1     -40.349 -41.903  12.303  1.00  0.00     0.007 C 
HETATM   20  C   UNL     1     -41.107 -43.041  12.991  1.00  0.00     0.040 C 
BRANCH  14  21
HETATM   21  O   UNL     1     -43.172 -44.223  13.207  1.00  0.00    -0.388 OA
HETATM   22  H   UNL     1     -43.513 -44.931  12.625  1.00  0.00     0.210 HD
ENDBRANCH  14  21
ENDBRANCH  13  14
ENDBRANCH   8  13
BRANCH   1  23
HETATM   23  N   UNL     1     -40.384 -49.499  10.676  1.00  0.00    -0.273 NA
HETATM   24  H   UNL     1     -39.880 -49.328   9.805  1.00  0.00     0.129 HD
BRANCH  23  25
HETATM   25  C   UNL     1     -39.575 -49.829  11.843  1.00  0.00     0.053 C 
HETATM   26  C   UNL     1     -39.989 -51.215  12.327  1.00  0.00     0.026 C 
HETATM   27  C   UNL     1     -38.092 -49.799  11.479  1.00  0.00     0.026 C 
ENDBRANCH  23  25
ENDBRANCH   1  23
TORSDOF 5
ENDMDL
MODEL 4
REMARK VINA RESULT:      -6.4      2.343      2.824
REMARK  5 active torsions:
REMARK  status: ('A' for Active; 'I' for Inactive)
REMARK    1  A    between atoms: C_2  and  N_4 
REMARK    2  A    between atoms: N_4  and  C_5 
REMARK    3  A    between atoms: N_12  and  C_13 
REMARK    4  A    between atoms: C_13  and  C_14 
REMARK    5  A    between atoms: C_14  and  O_15 
ROOT
HETATM    1  C   UNL     1     -41.081 -47.705  11.142  1.00  0.00     0.112 A 
HETATM    2  N   UNL     1     -42.375 -47.327  10.952  1.00  0.00    -0.341 N 
ATOM      3  HN  UNL     1     -42.595 -46.491  10.409  1.00  0.00     0.167 HD
HETATM    4  C   UNL     1     -43.362 -48.074  11.491  1.00  0.00     0.183 A 
HETATM    5  N   UNL     1     -43.251 -49.208  12.202  1.00  0.00    -0.336 N 
ATOM      6  HN  UNL     1     -44.040 -49.735  12.577  1.00  0.00     0.168 HD
HETATM    7  C   UNL     1     -41.964 -49.553  12.352  1.00  0.00     0.140 A 
HETATM    8  N   UNL     1     -41.467 -50.657  12.977  1.00  0.00    -0.324 N 
HETATM    9  C   UNL     1     -40.100 -50.574  12.947  1.00  0.00     0.185 A 
HETATM   10  N   UNL     1     -39.689 -49.527  12.263  1.00  0.00    -0.346 N 
ATOM     11  HN  UNL     1     -38.727 -49.257  12.054  1.00  0.00     0.167 HD
HETATM   12  C   UNL     1     -40.850 -48.873  11.889  1.00  0.00     0.116 A 
ENDROOT
BRANCH   8  13
HETATM   13  C   UNL     1     -42.244 -51.669  13.655  1.00  0.00     0.169 C 
BRANCH  13  14
HETATM   14  C   UNL     1     -42.949 -52.710  12.746  1.00  0.00     0.074 C 
HETATM   15  C   UNL     1     -44.474 -52.562  12.578  1.00  0.00     0.040 C 
HETATM   16  C   UNL     1     -45.280 -52.865  13.845  1.00  0.00     0.007 C 
HETATM   17  C   UNL     1     -44.902 -54.191  14.525  1.00  0.00    -0.019 C 
HETATM   18  C   UNL     1     -45.506 -55.405  13.813  1.00  0.00     0.010 C 
HETATM   19  C   UNL     1     -43.381 -54.342  14.652  1.00  0.00     0.007 C 
HETATM   20  C   UNL     1     -42.664 -54.113  13.320  1.00  0.00     0.040 C 
BRANCH  14  21
HETATM   21  O   UNL     1     -42.346 -52.668  11.444  1.00  0.00    -0.388 OA
HETATM   22  H   UNL     1     -42.989 -52.287  10.814  1.00  0.00     0.210 HD
ENDBRANCH  14  21
ENDBRANCH  13  14
ENDBRANCH   8  13
BRANCH   1  23
HETATM   23  N   UNL     1     -40.031 -46.950  10.615  1.00  0.00    -0.273 NA
HETATM   24  H   UNL     1     -39.763 -47.307   9.697  1.00  0.00     0.129 HD
BRANCH  23  25
HETATM   25  C   UNL     1     -40.137 -45.502  10.746  1.00  0.00     0.053 C 
HETATM   26  C   UNL     1     -39.697 -45.124  12.156  1.00  0.00     0.026 C 
HETATM   27  C   UNL     1     -39.261 -44.815   9.699  1.00  0.00     0.026 C 
ENDBRANCH  23  25
ENDBRANCH   1  23
TORSDOF 5
ENDMDL
MODEL 5
REMARK VINA RESULT:      -6.1      2.676      3.428
REMARK  5 active torsions:
REMARK  status: ('A' for Active; 'I' for Inactive)
REMARK    1  A    between atoms: C_2  and  N_4 
REMARK    2  A    between atoms: N_4  and  C_5 
REMARK    3  A    between atoms: N_12  and  C_13 
REMARK    4  A    between atoms: C_13  and  C_14 
REMARK    5  A    between atoms: C_14  and  O_15 
ROOT
HETATM    1  C   UNL     1     -40.598 -46.377  10.744  1.00  0.00     0.112 A 
HETATM    2  N   UNL     1     -41.709 -46.338   9.959  1.00  0.00    -0.341 N 
ATOM      3  HN  UNL     1     -41.981 -45.474   9.489  1.00  0.00     0.167 HD
HETATM    4  C   UNL     1     -42.446 -47.460   9.811  1.00  0.00     0.183 A 
HETATM    5  N   UNL     1     -42.219 -48.678  10.330  1.00  0.00    -0.336 N 
ATOM      6  HN  UNL     1     -42.812 -49.493  10.174  1.00  0.00     0.168 HD
HETATM    7  C   UNL     1     -41.108 -48.676  11.082  1.00  0.00     0.140 A 
HETATM    8  N   UNL     1     -40.543 -49.732  11.732  1.00  0.00    -0.324 N 
HETATM    9  C   UNL     1     -39.458 -49.263  12.425  1.00  0.00     0.185 A 
HETATM   10  N   UNL     1     -39.242 -47.985  12.189  1.00  0.00    -0.346 N 
ATOM     11  HN  UNL     1     -38.481 -47.406  12.544  1.00  0.00     0.167 HD
HETATM   12  C   UNL     1     -40.275 -47.603  11.351  1.00  0.00     0.116 A 
ENDROOT
BRANCH   8  13
HETATM   13  C   UNL     1     -41.067 -51.078  11.778  1.00  0.00     0.169 C 
BRANCH  13  14
HETATM   14  C   UNL     1     -42.195 -51.333  12.812  1.00  0.00     0.074 C 
HETATM   15  C   UNL     1     -41.809 -51.215  14.300  1.00  0.00     0.040 C 
HETATM   16  C   UNL     1     -40.866 -52.316  14.796  1.00  0.00     0.007 C 
HETATM   17  C   UNL     1     -41.318 -53.739  14.430  1.00  0.00    -0.019 C 
HETATM   18  C   UNL     1     -42.441 -54.247  15.340  1.00  0.00     0.010 C 
HETATM   19  C   UNL     1     -41.734 -53.834  12.957  1.00  0.00     0.007 C 
HETATM   20  C   UNL     1     -42.747 -52.754  12.571  1.00  0.00     0.040 C 
BRANCH  14  21
HETATM   21  O   UNL     1     -43.273 -50.423  12.552  1.00  0.00    -0.388 OA
HETATM   22  H   UNL     1     -43.120 -49.995  11.686  1.00  0.00     0.210 HD
ENDBRANCH  14  21
ENDBRANCH  13  14
ENDBRANCH   8  13
BRANCH   1  23
HETATM   23  N   UNL     1     -39.818 -45.234  10.935  1.00  0.00    -0.273 NA
HETATM   24  H   UNL     1     -39.662 -44.758  10.047  1.00  0.00     0.129 HD
BRANCH  23  25
HETATM   25  C   UNL     1     -40.161 -44.393  12.075  1.00  0.00     0.053 C 
HETATM   26  C   UNL     1     -38.965 -44.369  13.020  1.00  0.00     0.026 C 
HETATM   27  C   UNL     1     -40.509 -42.983  11.600  1.00  0.00     0.026 C 
ENDBRANCH  23  25
ENDBRANCH   1  23
TORSDOF 5
ENDMDL
MODEL 6
REMARK VINA RESULT:      -6.1      2.177      3.296
REMARK  5 active torsions:
REMARK  status: ('A' for Active; 'I' for Inactive)
REMARK    1  A    between atoms: C_2  and  N_4 
REMARK    2  A    between atoms: N_4  and  C_5 
REMARK    3  A    between atoms: N_12  and  C_13 
REMARK    4  A    between atoms: C_13  and  C_14 
REMARK    5  A    between atoms: C_14  and  O_15 
ROOT
HETATM    1  C   UNL     1     -40.375 -48.573  11.299  1.00  0.00     0.112 A 
HETATM    2  N   UNL     1     -39.141 -49.145  11.259  1.00  0.00    -0.341 N 
ATOM      3  HN  UNL     1     -38.374 -48.687  10.766  1.00  0.00     0.167 HD
HETATM    4  C   UNL     1     -38.946 -50.327  11.882  1.00  0.00     0.183 A 
HETATM    5  N   UNL     1     -39.829 -51.047  12.593  1.00  0.00    -0.336 N 
ATOM      6  HN  UNL     1     -39.618 -51.934  13.050  1.00  0.00     0.168 HD
HETATM    7  C   UNL     1     -41.026 -50.441  12.621  1.00  0.00     0.140 A 
HETATM    8  N   UNL     1     -42.149 -50.851  13.275  1.00  0.00    -0.324 N 
HETATM    9  C   UNL     1     -43.151 -49.965  12.977  1.00  0.00     0.185 A 
HETATM   10  N   UNL     1     -42.715 -48.963  12.243  1.00  0.00    -0.346 N 
ATOM     11  HN  UNL     1     -43.242 -48.151  11.919  1.00  0.00     0.167 HD
HETATM   12  C   UNL     1     -41.382 -49.253  12.007  1.00  0.00     0.116 A 
ENDROOT
BRANCH   8  13
HETATM   13  C   UNL     1     -42.288 -52.067  14.042  1.00  0.00     0.169 C 
BRANCH  13  14
HETATM   14  C   UNL     1     -42.673 -53.337  13.239  1.00  0.00     0.074 C 
HETATM   15  C   UNL     1     -43.971 -53.265  12.410  1.00  0.00     0.040 C 
HETATM   16  C   UNL     1     -45.251 -53.194  13.248  1.00  0.00     0.007 C 
HETATM   17  C   UNL     1     -45.334 -54.258  14.355  1.00  0.00    -0.019 C 
HETATM   18  C   UNL     1     -45.729 -55.635  13.812  1.00  0.00     0.010 C 
HETATM   19  C   UNL     1     -44.025 -54.345  15.148  1.00  0.00     0.007 C 
HETATM   20  C   UNL     1     -42.807 -54.507  14.237  1.00  0.00     0.040 C 
BRANCH  14  21
HETATM   21  O   UNL     1     -41.592 -53.671  12.357  1.00  0.00    -0.388 OA
HETATM   22  H   UNL     1     -40.786 -53.208  12.661  1.00  0.00     0.210 HD
ENDBRANCH  14  21
ENDBRANCH  13  14
ENDBRANCH   8  13
BRANCH   1  23
HETATM   23  N   UNL     1     -40.622 -47.359  10.655  1.00  0.00    -0.273 NA
HETATM   24  H   UNL     1     -41.625 -47.229  10.514  1.00  0.00     0.129 HD
BRANCH  23  25
HETATM   25  C   UNL     1     -39.875 -46.202  11.132  1.00  0.00     0.053 C 
HETATM   26  C   UNL     1     -40.109 -45.055  10.155  1.00  0.00     0.026 C 
HETATM   27  C   UNL     1     -40.338 -45.823  12.538  1.00  0.00     0.026 C 
ENDBRANCH  23  25
ENDBRANCH   1  23
TORSDOF 5
ENDMDL
MODEL 7
REMARK VINA RESULT:      -6.0      2.580      3.173
REMARK  5 active torsions:
REMARK  status: ('A' for Active; 'I' for Inactive)
REMARK    1  A    between atoms: C_2  and  N_4 
REMARK    2  A    between atoms: N_4  and  C_5 
REMARK    3  A    between atoms: N_12  and  C_13 
REMARK    4  A    between atoms: C_13  and  C_14 
REMARK    5  A    between atoms: C_14  and  O_15 
ROOT
HETATM    1  C   UNL     1     -40.425 -46.732  11.145  1.00  0.00     0.112 A 
HETATM    2  N   UNL     1     -41.295 -47.064  10.152  1.00  0.00    -0.341 N 
ATOM      3  HN  UNL     1     -41.448 -46.433   9.365  1.00  0.00     0.167 HD
HETATM    4  C   UNL     1     -41.953 -48.240  10.225  1.00  0.00     0.183 A 
HETATM    5  N   UNL     1     -41.852 -49.193  11.167  1.00  0.00    -0.336 N 
ATOM      6  HN  UNL     1     -42.373 -50.070  11.161  1.00  0.00     0.168 HD
HETATM    7  C   UNL     1     -40.974 -48.834  12.115  1.00  0.00     0.140 A 
HETATM    8  N   UNL     1     -40.582 -49.557  13.201  1.00  0.00    -0.324 N 
HETATM    9  C   UNL     1     -39.721 -48.781  13.931  1.00  0.00     0.185 A 
HETATM   10  N   UNL     1     -39.468 -47.636  13.331  1.00  0.00    -0.346 N 
ATOM     11  HN  UNL     1     -38.833 -46.899  13.639  1.00  0.00     0.167 HD
HETATM   12  C   UNL     1     -40.254 -47.653  12.192  1.00  0.00     0.116 A 
ENDROOT
BRANCH   8  13
HETATM   13  C   UNL     1     -41.082 -50.860  13.578  1.00  0.00     0.169 C 
BRANCH  13  14
HETATM   14  C   UNL     1     -40.269 -52.075  13.061  1.00  0.00     0.074 C 
HETATM   15  C   UNL     1     -40.978 -53.445  13.090  1.00  0.00     0.040 C 
HETATM   16  C   UNL     1     -41.235 -53.992  14.496  1.00  0.00     0.007 C 
HETATM   17  C   UNL     1     -40.001 -53.964  15.414  1.00  0.00    -0.019 C 
HETATM   18  C   UNL     1     -39.025 -55.106  15.114  1.00  0.00     0.010 C 
HETATM   19  C   UNL     1     -39.285 -52.610  15.349  1.00  0.00     0.007 C 
HETATM   20  C   UNL     1     -38.985 -52.184  13.910  1.00  0.00     0.040 C 
BRANCH  14  21
HETATM   21  O   UNL     1     -39.851 -51.812  11.714  1.00  0.00    -0.388 OA
HETATM   22  H   UNL     1     -40.469 -52.258  11.102  1.00  0.00     0.210 HD
ENDBRANCH  14  21
ENDBRANCH  13  14
ENDBRANCH   8  13
BRANCH   1  23
HETATM   23  N   UNL     1     -39.736 -45.517  11.115  1.00  0.00    -0.273 NA
HETATM   24  H   UNL     1     -39.519 -45.255  10.153  1.00  0.00     0.129 HD
BRANCH  23  25
HETATM   25  C   UNL     1     -40.242 -44.459  11.982  1.00  0.00     0.053 C 
HETATM   26  C   UNL     1     -39.126 -44.065  12.944  1.00  0.00     0.026 C 
HETATM   27  C   UNL     1     -40.686 -43.262  11.142  1.00  0.00     0.026 C 
ENDBRANCH  23  25
ENDBRANCH   1  23
TORSDOF 5
ENDMDL
MODEL 8
REMARK VINA RESULT:      -6.0      2.772      4.996
REMARK  5 active torsions:
REMARK  status: ('A' for Active; 'I' for Inactive)
REMARK    1  A    between atoms: C_2  and  N_4 
REMARK    2  A    between atoms: N_4  and  C_5 
REMARK    3  A    between atoms: N_12  and  C_13 
REMARK    4  A    between atoms: C_13  and  C_14 
REMARK    5  A    between atoms: C_14  and  O_15 
ROOT
HETATM    1  C   UNL     1     -39.253 -49.838  12.618  1.00  0.00     0.112 A 
HETATM    2  N   UNL     1     -39.882 -48.853  11.920  1.00  0.00    -0.341 N 
ATOM      3  HN  UNL     1     -39.409 -47.969  11.730  1.00  0.00     0.167 HD
HETATM    4  C   UNL     1     -41.143 -49.062  11.483  1.00  0.00     0.183 A 
HETATM    5  N   UNL     1     -41.897 -50.166  11.619  1.00  0.00    -0.336 N 
ATOM      6  HN  UNL     1     -42.845 -50.267  11.256  1.00  0.00     0.168 HD
HETATM    7  C   UNL     1     -41.234 -51.115  12.297  1.00  0.00     0.140 A 
HETATM    8  N   UNL     1     -41.660 -52.375  12.592  1.00  0.00    -0.324 N 
HETATM    9  C   UNL     1     -40.690 -52.977  13.350  1.00  0.00     0.185 A 
HETATM   10  N   UNL     1     -39.629 -52.209  13.484  1.00  0.00    -0.346 N 
ATOM     11  HN  UNL     1     -38.756 -52.431  13.962  1.00  0.00     0.167 HD
HETATM   12  C   UNL     1     -39.960 -51.033  12.832  1.00  0.00     0.116 A 
ENDROOT
BRANCH   8  13
HETATM   13  C   UNL     1     -42.955 -52.931  12.267  1.00  0.00     0.169 C 
BRANCH  13  14
HETATM   14  C   UNL     1     -43.842 -53.335  13.473  1.00  0.00     0.074 C 
HETATM   15  C   UNL     1     -45.305 -53.711  13.161  1.00  0.00     0.040 C 
HETATM   16  C   UNL     1     -46.171 -52.539  12.692  1.00  0.00     0.007 C 
HETATM   17  C   UNL     1     -46.077 -51.293  13.588  1.00  0.00    -0.019 C 
HETATM   18  C   UNL     1     -46.905 -51.433  14.870  1.00  0.00     0.010 C 
HETATM   19  C   UNL     1     -44.621 -50.951  13.921  1.00  0.00     0.007 C 
HETATM   20  C   UNL     1     -43.854 -52.157  14.470  1.00  0.00     0.040 C 
BRANCH  14  21
HETATM   21  O   UNL     1     -43.227 -54.440  14.150  1.00  0.00    -0.388 OA
HETATM   22  H   UNL     1     -43.910 -55.115  14.333  1.00  0.00     0.210 HD
ENDBRANCH  14  21
ENDBRANCH  13  14
ENDBRANCH   8  13
BRANCH   1  23
HETATM   23  N   UNL     1     -37.956 -49.654  13.101  1.00  0.00    -0.273 NA
HETATM   24  H   UNL     1     -37.367 -49.227  12.386  1.00  0.00     0.129 HD
BRANCH  23  25
HETATM   25  C   UNL     1     -37.832 -49.120  14.452  1.00  0.00     0.053 C 
HETATM   26  C   UNL     1     -36.894 -50.033  15.235  1.00  0.00     0.026 C 
HETATM   27  C   UNL     1     -37.289 -47.693  14.404  1.00  0.00     0.026 C 
ENDBRANCH  23  25
ENDBRANCH   1  23
TORSDOF 5
ENDMDL
MODEL 9
REMARK VINA RESULT:      -5.9      3.504      7.338
REMARK  5 active torsions:
REMARK  status: ('A' for Active; 'I' for Inactive)
REMARK    1  A    between atoms: C_2  and  N_4 
REMARK    2  A    between atoms: N_4  and  C_5 
REMARK    3  A    between atoms: N_12  and  C_13 
REMARK    4  A    between atoms: C_13  and  C_14 
REMARK    5  A    between atoms: C_14  and  O_15 
ROOT
HETATM    1  C   UNL     1     -40.449 -50.743  11.483  1.00  0.00     0.112 A 
HETATM    2  N   UNL     1     -39.122 -50.825  11.771  1.00  0.00    -0.341 N 
ATOM      3  HN  UNL     1     -38.676 -51.733  11.906  1.00  0.00     0.167 HD
HETATM    4  C   UNL     1     -38.403 -49.686  11.875  1.00  0.00     0.183 A 
HETATM    5  N   UNL     1     -38.820 -48.421  11.702  1.00  0.00    -0.336 N 
ATOM      6  HN  UNL     1     -38.223 -47.598  11.786  1.00  0.00     0.168 HD
HETATM    7  C   UNL     1     -40.128 -48.387  11.405  1.00  0.00     0.140 A 
HETATM    8  N   UNL     1     -40.887 -47.291  11.125  1.00  0.00    -0.324 N 
HETATM    9  C   UNL     1     -42.178 -47.714  10.942  1.00  0.00     0.185 A 
HETATM   10  N   UNL     1     -42.275 -49.026  11.002  1.00  0.00    -0.346 N 
ATOM     11  HN  UNL     1     -43.110 -49.596  10.860  1.00  0.00     0.167 HD
HETATM   12  C   UNL     1     -40.995 -49.461  11.298  1.00  0.00     0.116 A 
ENDROOT
BRANCH   8  13
HETATM   13  C   UNL     1     -40.435 -45.919  11.140  1.00  0.00     0.169 C 
BRANCH  13  14
HETATM   14  C   UNL     1     -40.281 -45.269  12.540  1.00  0.00     0.074 C 
HETATM   15  C   UNL     1     -41.421 -45.520  13.548  1.00  0.00     0.040 C 
HETATM   16  C   UNL     1     -42.744 -44.840  13.185  1.00  0.00     0.007 C 
HETATM   17  C   UNL     1     -42.607 -43.350  12.831  1.00  0.00    -0.019 C 
HETATM   18  C   UNL     1     -42.458 -42.467  14.074  1.00  0.00     0.010 C 
HETATM   19  C   UNL     1     -41.448 -43.110  11.857  1.00  0.00     0.007 C 
HETATM   20  C   UNL     1     -40.143 -43.745  12.343  1.00  0.00     0.040 C 
BRANCH  14  21
HETATM   21  O   UNL     1     -39.052 -45.722  13.126  1.00  0.00    -0.388 OA
HETATM   22  H   UNL     1     -39.258 -46.401  13.799  1.00  0.00     0.210 HD
ENDBRANCH  14  21
ENDBRANCH  13  14
ENDBRANCH   8  13
BRANCH   1  23
HETATM   23  N   UNL     1     -41.232 -51.896  11.383  1.00  0.00    -0.273 NA
HETATM   24  H   UNL     1     -40.847 -52.525  10.678  1.00  0.00     0.129 HD
BRANCH  23  25
HETATM   25  C   UNL     1     -41.661 -52.505  12.637  1.00  0.00     0.053 C 
HETATM   26  C   UNL     1     -43.162 -52.759  12.546  1.00  0.00     0.026 C 
HETATM   27  C   UNL     1     -40.900 -53.808  12.874  1.00  0.00     0.026 C 
ENDBRANCH  23  25
ENDBRANCH   1  23
TORSDOF 5
ENDMDL
