MODEL 1
REMARK VINA RESULT:      -5.9      0.000      0.000
REMARK  4 active torsions:
REMARK  status: ('A' for Active; 'I' for Inactive)
REMARK    1  A    between atoms: C_2  and  O_3 
REMARK    2  A    between atoms: O_3  and  C_4 
REMARK    3  A    between atoms: C_6  and  N_7 
REMARK       I    between atoms: N_7  and  C_8 
REMARK       I    between atoms: C_8  and  N_10 
REMARK    4  A    between atoms: N_10  and  C_11 
ROOT
HETATM    1  N   UNL     1     -41.832 -49.766  11.537  1.00  0.00    -0.337 N 
HETATM    2  C   UNL     1     -42.494 -50.566  12.432  1.00  0.00     0.321 C 
HETATM    3  O   UNL     1     -43.024 -50.121  13.445  1.00  0.00    -0.247 OA
HETATM    4  N   UNL     1     -42.471 -51.893  12.065  1.00  0.00    -0.304 N 
HETATM    5  H   UNL     1     -41.253 -50.251  10.869  1.00  0.00     0.164 HD
HETATM    6  H   UNL     1     -41.734 -52.205  11.445  1.00  0.00     0.171 HD
ENDROOT
BRANCH   1   7
HETATM    7  C   UNL     1     -41.490 -48.379  11.883  1.00  0.00     0.099 C 
HETATM    8  C   UNL     1     -41.144 -47.390  10.743  1.00  0.00     0.059 C 
HETATM    9  C   UNL     1     -40.213 -46.694  11.790  1.00  0.00     0.133 C 
HETATM   10  C   UNL     1     -40.026 -48.140  12.398  1.00  0.00     0.006 C 
HETATM   11  C   UNL     1     -39.865 -48.370  13.896  1.00  0.00     0.014 C 
HETATM   12  C   UNL     1     -38.865 -48.931  11.779  1.00  0.00     0.014 C 
HETATM   13  C   UNL     1     -39.258 -49.769  14.024  1.00  0.00     0.001 C 
HETATM   14  C   UNL     1     -38.786 -50.186  12.635  1.00  0.00     0.001 C 
BRANCH   9  15
HETATM   15  O   UNL     1     -40.916 -45.718  12.599  1.00  0.00    -0.385 OA
BRANCH  15  16
HETATM   16  C   UNL     1     -40.380 -44.406  12.681  1.00  0.00     0.163 C 
HETATM   17  C   UNL     1     -38.922 -44.518  13.077  1.00  0.00     0.033 C 
ENDBRANCH  15  16
ENDBRANCH   9  15
ENDBRANCH   1   7
BRANCH   4  18
HETATM   18  C   UNL     1     -43.112 -52.921  12.732  1.00  0.00     0.105 A 
HETATM   19  C   UNL     1     -44.370 -53.320  12.502  1.00  0.00     0.037 A 
HETATM   20  C   UNL     1     -44.972 -54.380  13.269  1.00  0.00     0.020 A 
HETATM   21  C   UNL     1     -44.288 -54.971  14.251  1.00  0.00     0.094 A 
HETATM   22  N   UNL     1     -42.986 -54.604  14.535  1.00  0.00    -0.327 N 
HETATM   23  C   UNL     1     -42.291 -55.226  15.646  1.00  0.00     0.159 C 
HETATM   24  C   UNL     1     -42.311 -53.624  13.804  1.00  0.00     0.274 A 
HETATM   25  O   UNL     1     -41.141 -53.286  14.001  1.00  0.00    -0.266 OA
ENDBRANCH   4  18
TORSDOF 4
ENDMDL
MODEL 2
REMARK VINA RESULT:      -5.7      1.681      2.101
REMARK  4 active torsions:
REMARK  status: ('A' for Active; 'I' for Inactive)
REMARK    1  A    between atoms: C_2  and  O_3 
REMARK    2  A    between atoms: O_3  and  C_4 
REMARK    3  A    between atoms: C_6  and  N_7 
REMARK       I    between atoms: N_7  and  C_8 
REMARK       I    between atoms: C_8  and  N_10 
REMARK    4  A    between atoms: N_10  and  C_11 
ROOT
HETATM    1  N   UNL     1     -42.436 -48.721  11.420  1.00  0.00    -0.337 N 
HETATM    2  C   UNL     1     -42.445 -49.723  12.356  1.00  0.00     0.321 C 
HETATM    3  O   UNL     1     -42.754 -49.525  13.527  1.00  0.00    -0.247 OA
HETATM    4  N   UNL     1     -42.059 -50.936  11.830  1.00  0.00    -0.304 N 
HETATM    5  H   UNL     1     -41.962 -48.941  10.557  1.00  0.00     0.164 HD
HETATM    6  H   UNL     1     -41.494 -50.934  10.990  1.00  0.00     0.171 HD
ENDROOT
BRANCH   1   7
HETATM    7  C   UNL     1     -42.532 -47.313  11.828  1.00  0.00     0.099 C 
HETATM    8  C   UNL     1     -42.807 -46.240  10.746  1.00  0.00     0.059 C 
HETATM    9  C   UNL     1     -41.972 -45.279  11.656  1.00  0.00     0.133 C 
HETATM   10  C   UNL     1     -41.168 -46.574  12.071  1.00  0.00     0.006 C 
HETATM   11  C   UNL     1     -40.616 -46.765  13.479  1.00  0.00     0.014 C 
HETATM   12  C   UNL     1     -39.967 -46.879  11.163  1.00  0.00     0.014 C 
HETATM   13  C   UNL     1     -39.549 -47.854  13.348  1.00  0.00     0.001 C 
HETATM   14  C   UNL     1     -39.275 -48.041  11.859  1.00  0.00     0.001 C 
BRANCH   9  15
HETATM   15  O   UNL     1     -42.777 -44.641  12.679  1.00  0.00    -0.385 OA
BRANCH  15  16
HETATM   16  C   UNL     1     -42.512 -43.282  12.989  1.00  0.00     0.163 C 
HETATM   17  C   UNL     1     -41.412 -42.796  12.067  1.00  0.00     0.033 C 
ENDBRANCH  15  16
ENDBRANCH   9  15
ENDBRANCH   1   7
BRANCH   4  18
HETATM   18  C   UNL     1     -42.038 -52.136  12.515  1.00  0.00     0.105 A 
HETATM   19  C   UNL     1     -43.124 -52.833  12.878  1.00  0.00     0.037 A 
HETATM   20  C   UNL     1     -43.012 -54.062  13.621  1.00  0.00     0.020 A 
HETATM   21  C   UNL     1     -41.812 -54.518  13.988  1.00  0.00     0.094 A 
HETATM   22  N   UNL     1     -40.656 -53.844  13.642  1.00  0.00    -0.327 N 
HETATM   23  C   UNL     1     -39.373 -54.337  14.106  1.00  0.00     0.159 C 
HETATM   24  C   UNL     1     -40.673 -52.676  12.877  1.00  0.00     0.274 A 
HETATM   25  O   UNL     1     -39.668 -52.060  12.519  1.00  0.00    -0.266 OA
ENDBRANCH   4  18
TORSDOF 4
ENDMDL
MODEL 3
REMARK VINA RESULT:      -5.6      1.125      1.744
REMARK  4 active torsions:
REMARK  status: ('A' for Active; 'I' for Inactive)
REMARK    1  A    between atoms: C_2  and  O_3 
REMARK    2  A    between atoms: O_3  and  C_4 
REMARK    3  A    between atoms: C_6  and  N_7 
REMARK       I    between atoms: N_7  and  C_8 
REMARK       I    between atoms: C_8  and  N_10 
REMARK    4  A    between atoms: N_10  and  C_11 
ROOT
HETATM    1  N   UNL     1     -41.524 -50.221  11.728  1.00  0.00    -0.337 N 
HETATM    2  C   UNL     1     -41.989 -50.955  12.790  1.00  0.00     0.321 C 
HETATM    3  O   UNL     1     -42.389 -50.431  13.825  1.00  0.00    -0.247 OA
HETATM    4  N   UNL     1     -41.933 -52.310  12.555  1.00  0.00    -0.304 N 
HETATM    5  H   UNL     1     -41.021 -50.745  11.028  1.00  0.00     0.164 HD
HETATM    6  H   UNL     1     -41.278 -52.648  11.861  1.00  0.00     0.171 HD
ENDROOT
BRANCH   1   7
HETATM    7  C   UNL     1     -41.228 -48.790  11.879  1.00  0.00     0.099 C 
HETATM    8  C   UNL     1     -41.124 -47.912  10.608  1.00  0.00     0.059 C 
HETATM    9  C   UNL     1     -40.094 -47.061  11.423  1.00  0.00     0.133 C 
HETATM   10  C   UNL     1     -39.722 -48.423  12.134  1.00  0.00     0.006 C 
HETATM   11  C   UNL     1     -39.324 -48.483  13.603  1.00  0.00     0.014 C 
HETATM   12  C   UNL     1     -38.617 -49.216  11.422  1.00  0.00     0.014 C 
HETATM   13  C   UNL     1     -38.612 -49.828  13.772  1.00  0.00     0.001 C 
HETATM   14  C   UNL     1     -38.328 -50.366  12.373  1.00  0.00     0.001 C 
BRANCH   9  15
HETATM   15  O   UNL     1     -40.732 -46.042  12.233  1.00  0.00    -0.385 OA
BRANCH  15  16
HETATM   16  C   UNL     1     -40.189 -44.731  12.207  1.00  0.00     0.163 C 
HETATM   17  C   UNL     1     -39.901 -44.371  10.764  1.00  0.00     0.033 C 
ENDBRANCH  15  16
ENDBRANCH   9  15
ENDBRANCH   1   7
BRANCH   4  18
HETATM   18  C   UNL     1     -42.396 -53.292  13.411  1.00  0.00     0.105 A 
HETATM   19  C   UNL     1     -41.668 -53.881  14.370  1.00  0.00     0.037 A 
HETATM   20  C   UNL     1     -42.222 -54.921  15.198  1.00  0.00     0.020 A 
HETATM   21  C   UNL     1     -43.474 -55.340  15.003  1.00  0.00     0.094 A 
HETATM   22  N   UNL     1     -44.274 -54.770  14.031  1.00  0.00    -0.327 N 
HETATM   23  C   UNL     1     -45.611 -55.287  13.808  1.00  0.00     0.159 C 
HETATM   24  C   UNL     1     -43.833 -53.720  13.223  1.00  0.00     0.274 A 
HETATM   25  O   UNL     1     -44.520 -53.161  12.365  1.00  0.00    -0.266 OA
ENDBRANCH   4  18
TORSDOF 4
ENDMDL
MODEL 4
REMARK VINA RESULT:      -5.5      1.467      2.094
REMARK  4 active torsions:
REMARK  status: ('A' for Active; 'I' for Inactive)
REMARK    1  A    between atoms: C_2  and  O_3 
REMARK    2  A    between atoms: O_3  and  C_4 
REMARK    3  A    between atoms: C_6  and  N_7 
REMARK       I    between atoms: N_7  and  C_8 
REMARK       I    between atoms: C_8  and  N_10 
REMARK    4  A    between atoms: N_10  and  C_11 
ROOT
HETATM    1  N   UNL     1     -42.898 -49.299  11.842  1.00  0.00    -0.337 N 
HETATM    2  C   UNL     1     -43.042 -50.210  12.856  1.00  0.00     0.321 C 
HETATM    3  O   UNL     1     -43.356 -49.881  13.995  1.00  0.00    -0.247 OA
HETATM    4  N   UNL     1     -42.780 -51.498  12.444  1.00  0.00    -0.304 N 
HETATM    5  H   UNL     1     -42.429 -49.641  11.016  1.00  0.00     0.164 HD
HETATM    6  H   UNL     1     -42.198 -51.629  11.627  1.00  0.00     0.171 HD
ENDROOT
BRANCH   1   7
HETATM    7  C   UNL     1     -42.845 -47.859  12.130  1.00  0.00     0.099 C 
HETATM    8  C   UNL     1     -43.083 -46.857  10.974  1.00  0.00     0.059 C 
HETATM    9  C   UNL     1     -42.118 -45.907  11.756  1.00  0.00     0.133 C 
HETATM   10  C   UNL     1     -41.410 -47.232  12.243  1.00  0.00     0.006 C 
HETATM   11  C   UNL     1     -40.801 -47.357  13.634  1.00  0.00     0.014 C 
HETATM   12  C   UNL     1     -40.293 -47.721  11.309  1.00  0.00     0.014 C 
HETATM   13  C   UNL     1     -39.843 -48.548  13.548  1.00  0.00     0.001 C 
HETATM   14  C   UNL     1     -39.668 -48.881  12.070  1.00  0.00     0.001 C 
BRANCH   9  15
HETATM   15  O   UNL     1     -42.806 -45.115  12.757  1.00  0.00    -0.385 OA
BRANCH  15  16
HETATM   16  C   UNL     1     -42.531 -43.724  12.815  1.00  0.00     0.163 C 
HETATM   17  C   UNL     1     -41.049 -43.528  12.565  1.00  0.00     0.033 C 
ENDBRANCH  15  16
ENDBRANCH   9  15
ENDBRANCH   1   7
BRANCH   4  18
HETATM   18  C   UNL     1     -42.911 -52.631  13.225  1.00  0.00     0.105 A 
HETATM   19  C   UNL     1     -41.945 -53.150  13.995  1.00  0.00     0.037 A 
HETATM   20  C   UNL     1     -42.157 -54.356  14.753  1.00  0.00     0.020 A 
HETATM   21  C   UNL     1     -43.324 -55.000  14.678  1.00  0.00     0.094 A 
HETATM   22  N   UNL     1     -44.360 -54.513  13.903  1.00  0.00    -0.327 N 
HETATM   23  C   UNL     1     -45.594 -55.267  13.799  1.00  0.00     0.159 C 
HETATM   24  C   UNL     1     -44.255 -53.322  13.180  1.00  0.00     0.274 A 
HETATM   25  O   UNL     1     -45.160 -52.834  12.501  1.00  0.00    -0.266 OA
ENDBRANCH   4  18
TORSDOF 4
ENDMDL
MODEL 5
REMARK VINA RESULT:      -5.5      1.813      2.291
REMARK  4 active torsions:
REMARK  status: ('A' for Active; 'I' for Inactive)
REMARK    1  A    between atoms: C_2  and  O_3 
REMARK    2  A    between atoms: O_3  and  C_4 
REMARK    3  A    between atoms: C_6  and  N_7 
REMARK       I    between atoms: N_7  and  C_8 
REMARK       I    between atoms: C_8  and  N_10 
REMARK    4  A    between atoms: N_10  and  C_11 
ROOT
HETATM    1  N   UNL     1     -40.775 -50.948  12.355  1.00  0.00    -0.337 N 
HETATM    2  C   UNL     1     -41.053 -51.642  13.504  1.00  0.00     0.321 C 
HETATM    3  O   UNL     1     -41.390 -51.084  14.543  1.00  0.00    -0.247 OA
HETATM    4  N   UNL     1     -40.893 -53.001  13.348  1.00  0.00    -0.304 N 
HETATM    5  H   UNL     1     -40.301 -51.474  11.636  1.00  0.00     0.164 HD
HETATM    6  H   UNL     1     -40.286 -53.328  12.606  1.00  0.00     0.171 HD
ENDROOT
BRANCH   1   7
HETATM    7  C   UNL     1     -40.602 -49.489  12.383  1.00  0.00     0.099 C 
HETATM    8  C   UNL     1     -40.821 -48.686  11.078  1.00  0.00     0.059 C 
HETATM    9  C   UNL     1     -39.752 -47.696  11.647  1.00  0.00     0.133 C 
HETATM   10  C   UNL     1     -39.120 -48.971  12.335  1.00  0.00     0.006 C 
HETATM   11  C   UNL     1     -38.456 -48.903  13.705  1.00  0.00     0.014 C 
HETATM   12  C   UNL     1     -38.090 -49.703  11.464  1.00  0.00     0.014 C 
HETATM   13  C   UNL     1     -37.594 -50.164  13.796  1.00  0.00     0.001 C 
HETATM   14  C   UNL     1     -37.516 -50.760  12.394  1.00  0.00     0.001 C 
BRANCH   9  15
HETATM   15  O   UNL     1     -40.330 -46.691  12.517  1.00  0.00    -0.385 OA
BRANCH  15  16
HETATM   16  C   UNL     1     -39.981 -45.333  12.294  1.00  0.00     0.163 C 
HETATM   17  C   UNL     1     -39.739 -45.147  10.810  1.00  0.00     0.033 C 
ENDBRANCH  15  16
ENDBRANCH   9  15
ENDBRANCH   1   7
BRANCH   4  18
HETATM   18  C   UNL     1     -41.167 -53.956  14.308  1.00  0.00     0.105 A 
HETATM   19  C   UNL     1     -42.393 -54.383  14.640  1.00  0.00     0.037 A 
HETATM   20  C   UNL     1     -42.590 -55.361  15.679  1.00  0.00     0.020 A 
HETATM   21  C   UNL     1     -41.545 -55.842  16.356  1.00  0.00     0.094 A 
HETATM   22  N   UNL     1     -40.256 -55.441  16.058  1.00  0.00    -0.327 N 
HETATM   23  C   UNL     1     -39.149 -55.941  16.851  1.00  0.00     0.159 C 
HETATM   24  C   UNL     1     -39.974 -54.539  15.030  1.00  0.00     0.274 A 
HETATM   25  O   UNL     1     -38.840 -54.178  14.709  1.00  0.00    -0.266 OA
ENDBRANCH   4  18
TORSDOF 4
ENDMDL
MODEL 6
REMARK VINA RESULT:      -5.4      1.950      3.213
REMARK  4 active torsions:
REMARK  status: ('A' for Active; 'I' for Inactive)
REMARK    1  A    between atoms: C_2  and  O_3 
REMARK    2  A    between atoms: O_3  and  C_4 
REMARK    3  A    between atoms: C_6  and  N_7 
REMARK       I    between atoms: N_7  and  C_8 
REMARK       I    between atoms: C_8  and  N_10 
REMARK    4  A    between atoms: N_10  and  C_11 
ROOT
HETATM    1  N   UNL     1     -40.998 -48.861  10.713  1.00  0.00    -0.337 N 
HETATM    2  C   UNL     1     -41.204 -49.737  11.747  1.00  0.00     0.321 C 
HETATM    3  O   UNL     1     -41.386 -49.361  12.900  1.00  0.00    -0.247 OA
HETATM    4  N   UNL     1     -41.163 -51.051  11.337  1.00  0.00    -0.304 N 
HETATM    5  H   UNL     1     -40.643 -49.272   9.862  1.00  0.00     0.164 HD
HETATM    6  H   UNL     1     -40.664 -51.270  10.484  1.00  0.00     0.171 HD
ENDROOT
BRANCH   1   7
HETATM    7  C   UNL     1     -40.715 -47.444  10.976  1.00  0.00     0.099 C 
HETATM    8  C   UNL     1     -40.441 -46.995  12.433  1.00  0.00     0.059 C 
HETATM    9  C   UNL     1     -41.074 -45.630  12.006  1.00  0.00     0.133 C 
HETATM   10  C   UNL     1     -41.963 -46.491  11.024  1.00  0.00     0.006 C 
HETATM   11  C   UNL     1     -42.384 -45.974   9.654  1.00  0.00     0.014 C 
HETATM   12  C   UNL     1     -43.274 -46.990  11.647  1.00  0.00     0.014 C 
HETATM   13  C   UNL     1     -43.567 -46.852   9.240  1.00  0.00     0.001 C 
HETATM   14  C   UNL     1     -44.010 -47.626  10.478  1.00  0.00     0.001 C 
BRANCH   9  15
HETATM   15  O   UNL     1     -40.106 -44.730  11.410  1.00  0.00    -0.385 OA
BRANCH  15  16
HETATM   16  C   UNL     1     -40.114 -43.371  11.821  1.00  0.00     0.163 C 
HETATM   17  C   UNL     1     -41.348 -42.712  11.239  1.00  0.00     0.033 C 
ENDBRANCH  15  16
ENDBRANCH   9  15
ENDBRANCH   1   7
BRANCH   4  18
HETATM   18  C   UNL     1     -41.404 -52.149  12.142  1.00  0.00     0.105 A 
HETATM   19  C   UNL     1     -42.595 -52.746  12.292  1.00  0.00     0.037 A 
HETATM   20  C   UNL     1     -42.764 -53.868  13.179  1.00  0.00     0.020 A 
HETATM   21  C   UNL     1     -41.732 -54.321  13.894  1.00  0.00     0.094 A 
HETATM   22  N   UNL     1     -40.479 -53.748  13.781  1.00  0.00    -0.327 N 
HETATM   23  C   UNL     1     -39.393 -54.227  14.615  1.00  0.00     0.159 C 
HETATM   24  C   UNL     1     -40.217 -52.693  12.905  1.00  0.00     0.274 A 
HETATM   25  O   UNL     1     -39.111 -52.172  12.747  1.00  0.00    -0.266 OA
ENDBRANCH   4  18
TORSDOF 4
ENDMDL
MODEL 7
REMARK VINA RESULT:      -5.4      2.269      7.749
REMARK  4 active torsions:
REMARK  status: ('A' for Active; 'I' for Inactive)
REMARK    1  A    between atoms: C_2  and  O_3 
REMARK    2  A    between atoms: O_3  and  C_4 
REMARK    3  A    between atoms: C_6  and  N_7 
REMARK       I    between atoms: N_7  and  C_8 
REMARK       I    between atoms: C_8  and  N_10 
REMARK    4  A    between atoms: N_10  and  C_11 
ROOT
HETATM    1  N   UNL     1     -43.082 -50.706  12.542  1.00  0.00    -0.337 N 
HETATM    2  C   UNL     1     -42.547 -49.518  12.970  1.00  0.00     0.321 C 
HETATM    3  O   UNL     1     -41.717 -49.459  13.872  1.00  0.00    -0.247 OA
HETATM    4  N   UNL     1     -43.059 -48.436  12.290  1.00  0.00    -0.304 N 
HETATM    5  H   UNL     1     -43.903 -50.625  11.961  1.00  0.00     0.164 HD
HETATM    6  H   UNL     1     -43.963 -48.537  11.844  1.00  0.00     0.171 HD
ENDROOT
BRANCH   1   7
HETATM    7  C   UNL     1     -42.894 -51.937  13.320  1.00  0.00     0.099 C 
HETATM    8  C   UNL     1     -42.452 -53.226  12.584  1.00  0.00     0.059 C 
HETATM    9  C   UNL     1     -43.261 -53.990  13.683  1.00  0.00     0.133 C 
HETATM   10  C   UNL     1     -44.202 -52.721  13.695  1.00  0.00     0.006 C 
HETATM   11  C   UNL     1     -44.865 -52.220  14.972  1.00  0.00     0.014 C 
HETATM   12  C   UNL     1     -45.358 -52.792  12.687  1.00  0.00     0.014 C 
HETATM   13  C   UNL     1     -46.011 -51.320  14.504  1.00  0.00     0.001 C 
HETATM   14  C   UNL     1     -46.196 -51.565  13.010  1.00  0.00     0.001 C 
BRANCH   9  15
HETATM   15  O   UNL     1     -42.477 -54.246  14.875  1.00  0.00    -0.385 OA
BRANCH  15  16
HETATM   16  C   UNL     1     -42.817 -55.372  15.671  1.00  0.00     0.163 C 
HETATM   17  C   UNL     1     -43.141 -54.879  17.066  1.00  0.00     0.033 C 
ENDBRANCH  15  16
ENDBRANCH   9  15
ENDBRANCH   1   7
BRANCH   4  18
HETATM   18  C   UNL     1     -42.660 -47.123  12.455  1.00  0.00     0.105 A 
HETATM   19  C   UNL     1     -43.137 -46.286  13.386  1.00  0.00     0.037 A 
HETATM   20  C   UNL     1     -42.688 -44.920  13.466  1.00  0.00     0.020 A 
HETATM   21  C   UNL     1     -41.798 -44.453  12.588  1.00  0.00     0.094 A 
HETATM   22  N   UNL     1     -41.269 -45.268  11.606  1.00  0.00    -0.327 N 
HETATM   23  C   UNL     1     -40.348 -44.713  10.632  1.00  0.00     0.159 C 
HETATM   24  C   UNL     1     -41.610 -46.618  11.492  1.00  0.00     0.274 A 
HETATM   25  O   UNL     1     -41.140 -47.390  10.654  1.00  0.00    -0.266 OA
ENDBRANCH   4  18
TORSDOF 4
ENDMDL
MODEL 8
REMARK VINA RESULT:      -5.3      2.493      3.310
REMARK  4 active torsions:
REMARK  status: ('A' for Active; 'I' for Inactive)
REMARK    1  A    between atoms: C_2  and  O_3 
REMARK    2  A    between atoms: O_3  and  C_4 
REMARK    3  A    between atoms: C_6  and  N_7 
REMARK       I    between atoms: N_7  and  C_8 
REMARK       I    between atoms: C_8  and  N_10 
REMARK    4  A    between atoms: N_10  and  C_11 
ROOT
HETATM    1  N   UNL     1     -40.890 -50.130  12.913  1.00  0.00    -0.337 N 
HETATM    2  C   UNL     1     -42.061 -50.482  13.534  1.00  0.00     0.321 C 
HETATM    3  O   UNL     1     -42.357 -50.079  14.654  1.00  0.00    -0.247 OA
HETATM    4  N   UNL     1     -42.825 -51.334  12.768  1.00  0.00    -0.304 N 
HETATM    5  H   UNL     1     -40.646 -50.683  12.105  1.00  0.00     0.164 HD
HETATM    6  H   UNL     1     -42.360 -51.882  12.055  1.00  0.00     0.171 HD
ENDROOT
BRANCH   1   7
HETATM    7  C   UNL     1     -39.812 -49.473  13.663  1.00  0.00     0.099 C 
HETATM    8  C   UNL     1     -38.652 -48.811  12.879  1.00  0.00     0.059 C 
HETATM    9  C   UNL     1     -37.765 -49.177  14.114  1.00  0.00     0.133 C 
HETATM   10  C   UNL     1     -38.721 -50.424  14.274  1.00  0.00     0.006 C 
HETATM   11  C   UNL     1     -39.099 -50.982  15.641  1.00  0.00     0.014 C 
HETATM   12  C   UNL     1     -38.267 -51.662  13.486  1.00  0.00     0.014 C 
HETATM   13  C   UNL     1     -39.613 -52.397  15.369  1.00  0.00     0.001 C 
HETATM   14  C   UNL     1     -39.232 -52.749  13.935  1.00  0.00     0.001 C 
BRANCH   9  15
HETATM   15  O   UNL     1     -37.812 -48.166  15.153  1.00  0.00    -0.385 OA
BRANCH  15  16
HETATM   16  C   UNL     1     -36.597 -47.804  15.790  1.00  0.00     0.163 C 
HETATM   17  C   UNL     1     -35.925 -49.073  16.275  1.00  0.00     0.033 C 
ENDBRANCH  15  16
ENDBRANCH   9  15
ENDBRANCH   1   7
BRANCH   4  18
HETATM   18  C   UNL     1     -44.083 -51.801  13.101  1.00  0.00     0.105 A 
HETATM   19  C   UNL     1     -45.153 -51.029  13.333  1.00  0.00     0.037 A 
HETATM   20  C   UNL     1     -46.421 -51.599  13.709  1.00  0.00     0.020 A 
HETATM   21  C   UNL     1     -46.546 -52.919  13.860  1.00  0.00     0.094 A 
HETATM   22  N   UNL     1     -45.479 -53.767  13.633  1.00  0.00    -0.327 N 
HETATM   23  C   UNL     1     -45.633 -55.191  13.863  1.00  0.00     0.159 C 
HETATM   24  C   UNL     1     -44.231 -53.301  13.214  1.00  0.00     0.274 A 
HETATM   25  O   UNL     1     -43.261 -54.022  12.970  1.00  0.00    -0.266 OA
ENDBRANCH   4  18
TORSDOF 4
ENDMDL
MODEL 9
REMARK VINA RESULT:      -5.3      2.780      4.057
REMARK  4 active torsions:
REMARK  status: ('A' for Active; 'I' for Inactive)
REMARK    1  A    between atoms: C_2  and  O_3 
REMARK    2  A    between atoms: O_3  and  C_4 
REMARK    3  A    between atoms: C_6  and  N_7 
REMARK       I    between atoms: N_7  and  C_8 
REMARK       I    between atoms: C_8  and  N_10 
REMARK    4  A    between atoms: N_10  and  C_11 
ROOT
HETATM    1  N   UNL     1     -40.460 -50.507  13.826  1.00  0.00    -0.337 N 
HETATM    2  C   UNL     1     -41.627 -51.059  14.289  1.00  0.00     0.321 C 
HETATM    3  O   UNL     1     -41.797 -51.339  15.471  1.00  0.00    -0.247 OA
HETATM    4  N   UNL     1     -42.544 -51.266  13.283  1.00  0.00    -0.304 N 
HETATM    5  H   UNL     1     -40.343 -50.522  12.824  1.00  0.00     0.164 HD
HETATM    6  H   UNL     1     -42.202 -51.347  12.334  1.00  0.00     0.171 HD
ENDROOT
BRANCH   1   7
HETATM    7  C   UNL     1     -39.259 -50.475  14.671  1.00  0.00     0.099 C 
HETATM    8  C   UNL     1     -39.122 -49.356  15.733  1.00  0.00     0.059 C 
HETATM    9  C   UNL     1     -37.581 -49.479  15.493  1.00  0.00     0.133 C 
HETATM   10  C   UNL     1     -37.970 -49.868  14.012  1.00  0.00     0.006 C 
HETATM   11  C   UNL     1     -37.166 -50.881  13.206  1.00  0.00     0.014 C 
HETATM   12  C   UNL     1     -38.097 -48.665  13.065  1.00  0.00     0.014 C 
HETATM   13  C   UNL     1     -37.550 -50.630  11.746  1.00  0.00     0.001 C 
HETATM   14  C   UNL     1     -38.298 -49.301  11.699  1.00  0.00     0.001 C 
BRANCH   9  15
HETATM   15  O   UNL     1     -36.971 -50.509  16.311  1.00  0.00    -0.385 OA
BRANCH  15  16
HETATM   16  C   UNL     1     -35.639 -50.307  16.757  1.00  0.00     0.163 C 
HETATM   17  C   UNL     1     -35.688 -49.489  18.031  1.00  0.00     0.033 C 
ENDBRANCH  15  16
ENDBRANCH   9  15
ENDBRANCH   1   7
BRANCH   4  18
HETATM   18  C   UNL     1     -43.830 -51.742  13.457  1.00  0.00     0.105 A 
HETATM   19  C   UNL     1     -44.913 -50.978  13.657  1.00  0.00     0.037 A 
HETATM   20  C   UNL     1     -46.214 -51.561  13.862  1.00  0.00     0.020 A 
HETATM   21  C   UNL     1     -46.360 -52.887  13.884  1.00  0.00     0.094 A 
HETATM   22  N   UNL     1     -45.281 -53.728  13.683  1.00  0.00    -0.327 N 
HETATM   23  C   UNL     1     -45.464 -55.164  13.770  1.00  0.00     0.159 C 
HETATM   24  C   UNL     1     -43.997 -53.244  13.423  1.00  0.00     0.274 A 
HETATM   25  O   UNL     1     -43.013 -53.954  13.207  1.00  0.00    -0.266 OA
ENDBRANCH   4  18
TORSDOF 4
ENDMDL
