MODEL 1
REMARK VINA RESULT:      -6.4      0.000      0.000
REMARK  5 active torsions:
REMARK  status: ('A' for Active; 'I' for Inactive)
REMARK    1  A    between atoms: C_2  and  N_3 
REMARK       I    between atoms: N_3  and  C_4 
REMARK    2  A    between atoms: C_4  and  C_6 
REMARK    3  A    between atoms: C_6  and  N_7 
REMARK       I    between atoms: N_7  and  C_8 
REMARK    4  A    between atoms: C_8  and  C_10 
REMARK    5  A    between atoms: C_13  and  N_17 
ROOT
HETATM    1  C   UNL     1     -41.049 -49.183  11.683  1.00  0.00     0.047 A 
HETATM    2  C   UNL     1     -42.185 -49.732  12.263  1.00  0.00     0.022 A 
HETATM    3  C   UNL     1     -42.153 -51.051  12.721  1.00  0.00     0.049 A 
HETATM    4  C   UNL     1     -40.994 -51.822  12.593  1.00  0.00     0.103 A 
HETATM    5  N   UNL     1     -39.901 -51.295  11.992  1.00  0.00    -0.351 N 
ATOM      6  HN  UNL     1     -39.057 -51.854  11.872  1.00  0.00     0.166 HD
HETATM    7  C   UNL     1     -39.947 -50.009  11.550  1.00  0.00     0.106 A 
ENDROOT
BRANCH   1   8
HETATM    8  C   UNL     1     -41.073 -47.772  11.228  1.00  0.00     0.253 C 
HETATM    9  N   UNL     1     -42.300 -47.234  10.907  1.00  0.00    -0.348 N 
HETATM   10  H   UNL     1     -43.094 -47.845  10.769  1.00  0.00     0.163 HD
HETATM   11  O   UNL     1     -40.024 -47.156  11.069  1.00  0.00    -0.268 OA
BRANCH   9  12
HETATM   12  C   UNL     1     -42.412 -45.891  10.358  1.00  0.00     0.225 C 
BRANCH  12  13
HETATM   13  C   UNL     1     -43.730 -45.696   9.602  1.00  0.00     0.235 C 
HETATM   14  N   UNL     1     -44.586 -46.775   9.659  1.00  0.00    -0.360 N 
HETATM   15  H   UNL     1     -44.294 -47.591  10.195  1.00  0.00     0.162 HD
HETATM   16  O   UNL     1     -43.971 -44.671   8.969  1.00  0.00    -0.272 OA
BRANCH  14  17
HETATM   17  C   UNL     1     -45.867 -46.784   8.985  1.00  0.00     0.118 C 
HETATM   18  C   UNL     1     -46.465 -48.178   8.923  1.00  0.00     0.026 C 
ENDBRANCH  14  17
ENDBRANCH  12  13
ENDBRANCH   9  12
ENDBRANCH   1   8
BRANCH   4  19
HETATM   19  N   UNL     1     -40.966 -53.133  13.013  1.00  0.00    -0.362 N 
HETATM   20  C   UNL     1     -42.184 -53.924  13.228  1.00  0.00     0.156 C 
HETATM   21  C   UNL     1     -42.356 -54.272  14.725  1.00  0.00     0.136 C 
HETATM   22  C   UNL     1     -43.513 -55.244  14.922  1.00  0.00     0.041 C 
HETATM   23  O   UNL     1     -41.174 -54.901  15.253  1.00  0.00    -0.378 OA
HETATM   24  C   UNL     1     -40.036 -54.023  15.135  1.00  0.00     0.136 C 
HETATM   25  C   UNL     1     -38.847 -54.750  15.749  1.00  0.00     0.041 C 
HETATM   26  C   UNL     1     -39.761 -53.674  13.660  1.00  0.00     0.156 C 
ENDBRANCH   4  19
TORSDOF 5
ENDMDL
MODEL 2
REMARK VINA RESULT:      -6.3      2.091      2.818
REMARK  5 active torsions:
REMARK  status: ('A' for Active; 'I' for Inactive)
REMARK    1  A    between atoms: C_2  and  N_3 
REMARK       I    between atoms: N_3  and  C_4 
REMARK    2  A    between atoms: C_4  and  C_6 
REMARK    3  A    between atoms: C_6  and  N_7 
REMARK       I    between atoms: N_7  and  C_8 
REMARK    4  A    between atoms: C_8  and  C_10 
REMARK    5  A    between atoms: C_13  and  N_17 
ROOT
HETATM    1  C   UNL     1     -42.202 -50.888  12.502  1.00  0.00     0.047 A 
HETATM    2  C   UNL     1     -41.564 -52.120  12.438  1.00  0.00     0.022 A 
HETATM    3  C   UNL     1     -42.054 -53.188  13.193  1.00  0.00     0.049 A 
HETATM    4  C   UNL     1     -43.171 -53.025  14.016  1.00  0.00     0.103 A 
HETATM    5  N   UNL     1     -43.767 -51.812  14.106  1.00  0.00    -0.351 N 
ATOM      6  HN  UNL     1     -44.569 -51.674  14.720  1.00  0.00     0.166 HD
HETATM    7  C   UNL     1     -43.279 -50.781  13.365  1.00  0.00     0.106 A 
ENDROOT
BRANCH   1   8
HETATM    8  C   UNL     1     -41.702 -49.765  11.674  1.00  0.00     0.253 C 
HETATM    9  N   UNL     1     -42.640 -48.914  11.132  1.00  0.00    -0.348 N 
HETATM   10  H   UNL     1     -43.613 -49.188  11.112  1.00  0.00     0.163 HD
HETATM   11  O   UNL     1     -40.504 -49.668  11.425  1.00  0.00    -0.268 OA
BRANCH   9  12
HETATM   12  C   UNL     1     -42.249 -47.844  10.227  1.00  0.00     0.225 C 
BRANCH  12  13
HETATM   13  C   UNL     1     -43.435 -47.347   9.392  1.00  0.00     0.235 C 
HETATM   14  N   UNL     1     -44.667 -47.762   9.848  1.00  0.00    -0.360 N 
HETATM   15  H   UNL     1     -44.698 -48.339  10.688  1.00  0.00     0.162 HD
HETATM   16  O   UNL     1     -43.278 -46.668   8.381  1.00  0.00    -0.272 OA
BRANCH  14  17
HETATM   17  C   UNL     1     -45.901 -47.412   9.176  1.00  0.00     0.118 C 
HETATM   18  C   UNL     1     -46.467 -48.578   8.386  1.00  0.00     0.026 C 
ENDBRANCH  14  17
ENDBRANCH  12  13
ENDBRANCH   9  12
ENDBRANCH   1   8
BRANCH   4  19
HETATM   19  N   UNL     1     -43.640 -54.064  14.788  1.00  0.00    -0.362 N 
HETATM   20  C   UNL     1     -44.819 -53.939  15.655  1.00  0.00     0.156 C 
HETATM   21  C   UNL     1     -44.419 -54.055  17.144  1.00  0.00     0.136 C 
HETATM   22  C   UNL     1     -45.657 -54.110  18.032  1.00  0.00     0.041 C 
HETATM   23  O   UNL     1     -43.662 -55.253  17.390  1.00  0.00    -0.378 OA
HETATM   24  C   UNL     1     -42.449 -55.256  16.609  1.00  0.00     0.136 C 
HETATM   25  C   UNL     1     -41.697 -56.534  16.959  1.00  0.00     0.041 C 
HETATM   26  C   UNL     1     -42.765 -55.203  15.102  1.00  0.00     0.156 C 
ENDBRANCH   4  19
TORSDOF 5
ENDMDL
MODEL 3
REMARK VINA RESULT:      -6.2      2.260      8.090
REMARK  5 active torsions:
REMARK  status: ('A' for Active; 'I' for Inactive)
REMARK    1  A    between atoms: C_2  and  N_3 
REMARK       I    between atoms: N_3  and  C_4 
REMARK    2  A    between atoms: C_4  and  C_6 
REMARK    3  A    between atoms: C_6  and  N_7 
REMARK       I    between atoms: N_7  and  C_8 
REMARK    4  A    between atoms: C_8  and  C_10 
REMARK    5  A    between atoms: C_13  and  N_17 
ROOT
HETATM    1  C   UNL     1     -42.052 -51.126  12.982  1.00  0.00     0.047 A 
HETATM    2  C   UNL     1     -42.888 -50.029  13.146  1.00  0.00     0.022 A 
HETATM    3  C   UNL     1     -42.747 -48.925  12.302  1.00  0.00     0.049 A 
HETATM    4  C   UNL     1     -41.769 -48.912  11.305  1.00  0.00     0.103 A 
HETATM    5  N   UNL     1     -40.931 -49.967  11.173  1.00  0.00    -0.351 N 
ATOM      6  HN  UNL     1     -40.198 -49.961  10.464  1.00  0.00     0.166 HD
HETATM    7  C   UNL     1     -41.080 -51.035  12.002  1.00  0.00     0.106 A 
ENDROOT
BRANCH   1   8
HETATM    8  C   UNL     1     -42.226 -52.311  13.856  1.00  0.00     0.253 C 
HETATM    9  N   UNL     1     -42.775 -53.439  13.288  1.00  0.00    -0.348 N 
HETATM   10  H   UNL     1     -43.243 -53.373  12.394  1.00  0.00     0.163 HD
HETATM   11  O   UNL     1     -41.965 -52.238  15.053  1.00  0.00    -0.268 OA
BRANCH   9  12
HETATM   12  C   UNL     1     -43.073 -54.616  14.090  1.00  0.00     0.225 C 
BRANCH  12  13
HETATM   13  C   UNL     1     -44.545 -54.655  14.513  1.00  0.00     0.235 C 
HETATM   14  N   UNL     1     -44.914 -53.657  15.390  1.00  0.00    -0.360 N 
HETATM   15  H   UNL     1     -44.205 -52.981  15.672  1.00  0.00     0.162 HD
HETATM   16  O   UNL     1     -45.311 -55.533  14.123  1.00  0.00    -0.272 OA
BRANCH  14  17
HETATM   17  C   UNL     1     -46.257 -53.546  15.918  1.00  0.00     0.118 C 
HETATM   18  C   UNL     1     -46.990 -52.343  15.355  1.00  0.00     0.026 C 
ENDBRANCH  14  17
ENDBRANCH  12  13
ENDBRANCH   9  12
ENDBRANCH   1   8
BRANCH   4  19
HETATM   19  N   UNL     1     -41.603 -47.814  10.490  1.00  0.00    -0.362 N 
HETATM   20  C   UNL     1     -40.617 -46.762  10.769  1.00  0.00     0.156 C 
HETATM   21  C   UNL     1     -41.320 -45.425  11.099  1.00  0.00     0.136 C 
HETATM   22  C   UNL     1     -40.305 -44.294  11.206  1.00  0.00     0.041 C 
HETATM   23  O   UNL     1     -42.260 -45.061  10.072  1.00  0.00    -0.378 OA
HETATM   24  C   UNL     1     -43.281 -46.072   9.937  1.00  0.00     0.136 C 
HETATM   25  C   UNL     1     -44.246 -45.589   8.862  1.00  0.00     0.041 C 
HETATM   26  C   UNL     1     -42.663 -47.428   9.547  1.00  0.00     0.156 C 
ENDBRANCH   4  19
TORSDOF 5
ENDMDL
MODEL 4
REMARK VINA RESULT:      -6.1      1.747      2.228
REMARK  5 active torsions:
REMARK  status: ('A' for Active; 'I' for Inactive)
REMARK    1  A    between atoms: C_2  and  N_3 
REMARK       I    between atoms: N_3  and  C_4 
REMARK    2  A    between atoms: C_4  and  C_6 
REMARK    3  A    between atoms: C_6  and  N_7 
REMARK       I    between atoms: N_7  and  C_8 
REMARK    4  A    between atoms: C_8  and  C_10 
REMARK    5  A    between atoms: C_13  and  N_17 
ROOT
HETATM    1  C   UNL     1     -40.653 -50.008  12.485  1.00  0.00     0.047 A 
HETATM    2  C   UNL     1     -39.864 -50.931  13.159  1.00  0.00     0.022 A 
HETATM    3  C   UNL     1     -40.372 -52.205  13.425  1.00  0.00     0.049 A 
HETATM    4  C   UNL     1     -41.666 -52.552  13.030  1.00  0.00     0.103 A 
HETATM    5  N   UNL     1     -42.446 -51.636  12.408  1.00  0.00    -0.351 N 
ATOM      6  HN  UNL     1     -43.400 -51.869  12.133  1.00  0.00     0.166 HD
HETATM    7  C   UNL     1     -41.938 -50.400  12.155  1.00  0.00     0.106 A 
ENDROOT
BRANCH   1   8
HETATM    8  C   UNL     1     -40.100 -48.669  12.173  1.00  0.00     0.253 C 
HETATM    9  N   UNL     1     -40.875 -47.830  11.403  1.00  0.00    -0.348 N 
HETATM   10  H   UNL     1     -41.664 -48.204  10.894  1.00  0.00     0.163 HD
HETATM   11  O   UNL     1     -38.961 -48.374  12.523  1.00  0.00    -0.268 OA
BRANCH   9  12
HETATM   12  C   UNL     1     -40.375 -46.535  10.964  1.00  0.00     0.225 C 
BRANCH  12  13
HETATM   13  C   UNL     1     -41.466 -45.711  10.274  1.00  0.00     0.235 C 
HETATM   14  N   UNL     1     -42.435 -46.461   9.643  1.00  0.00    -0.360 N 
HETATM   15  H   UNL     1     -42.363 -47.476   9.693  1.00  0.00     0.162 HD
HETATM   16  O   UNL     1     -41.442 -44.483  10.261  1.00  0.00    -0.272 OA
BRANCH  14  17
HETATM   17  C   UNL     1     -43.533 -45.858   8.918  1.00  0.00     0.118 C 
HETATM   18  C   UNL     1     -44.784 -46.715   8.967  1.00  0.00     0.026 C 
ENDBRANCH  14  17
ENDBRANCH  12  13
ENDBRANCH   9  12
ENDBRANCH   1   8
BRANCH   4  19
HETATM   19  N   UNL     1     -42.185 -53.795  13.317  1.00  0.00    -0.362 N 
HETATM   20  C   UNL     1     -43.570 -54.169  12.999  1.00  0.00     0.156 C 
HETATM   21  C   UNL     1     -44.386 -54.399  14.292  1.00  0.00     0.136 C 
HETATM   22  C   UNL     1     -45.764 -54.963  13.966  1.00  0.00     0.041 C 
HETATM   23  O   UNL     1     -43.733 -55.340  15.163  1.00  0.00    -0.378 OA
HETATM   24  C   UNL     1     -42.430 -54.855  15.548  1.00  0.00     0.136 C 
HETATM   25  C   UNL     1     -41.830 -55.889  16.492  1.00  0.00     0.041 C 
HETATM   26  C   UNL     1     -41.530 -54.656  14.312  1.00  0.00     0.156 C 
ENDBRANCH   4  19
TORSDOF 5
ENDMDL
MODEL 5
REMARK VINA RESULT:      -5.9      2.532      3.506
REMARK  5 active torsions:
REMARK  status: ('A' for Active; 'I' for Inactive)
REMARK    1  A    between atoms: C_2  and  N_3 
REMARK       I    between atoms: N_3  and  C_4 
REMARK    2  A    between atoms: C_4  and  C_6 
REMARK    3  A    between atoms: C_6  and  N_7 
REMARK       I    between atoms: N_7  and  C_8 
REMARK    4  A    between atoms: C_8  and  C_10 
REMARK    5  A    between atoms: C_13  and  N_17 
ROOT
HETATM    1  C   UNL     1     -40.374 -48.617  12.040  1.00  0.00     0.047 A 
HETATM    2  C   UNL     1     -39.524 -49.484  12.714  1.00  0.00     0.022 A 
HETATM    3  C   UNL     1     -39.895 -50.821  12.877  1.00  0.00     0.049 A 
HETATM    4  C   UNL     1     -41.113 -51.288  12.377  1.00  0.00     0.103 A 
HETATM    5  N   UNL     1     -41.956 -50.431  11.754  1.00  0.00    -0.351 N 
ATOM      6  HN  UNL     1     -42.857 -50.753  11.404  1.00  0.00     0.166 HD
HETATM    7  C   UNL     1     -41.581 -49.132  11.603  1.00  0.00     0.106 A 
ENDROOT
BRANCH   1   8
HETATM    8  C   UNL     1     -39.964 -47.207  11.838  1.00  0.00     0.253 C 
HETATM    9  N   UNL     1     -40.210 -46.649  10.603  1.00  0.00    -0.348 N 
HETATM   10  H   UNL     1     -40.440 -47.246   9.820  1.00  0.00     0.163 HD
HETATM   11  O   UNL     1     -39.355 -46.609  12.720  1.00  0.00    -0.268 OA
BRANCH   9  12
HETATM   12  C   UNL     1     -39.755 -45.304  10.281  1.00  0.00     0.225 C 
BRANCH  12  13
HETATM   13  C   UNL     1     -40.640 -44.236  10.931  1.00  0.00     0.235 C 
HETATM   14  N   UNL     1     -40.062 -43.588  12.001  1.00  0.00    -0.360 N 
HETATM   15  H   UNL     1     -39.112 -43.851  12.264  1.00  0.00     0.162 HD
HETATM   16  O   UNL     1     -41.784 -44.015  10.541  1.00  0.00    -0.272 OA
BRANCH  14  17
HETATM   17  C   UNL     1     -40.754 -42.566  12.755  1.00  0.00     0.118 C 
HETATM   18  C   UNL     1     -39.931 -41.297  12.879  1.00  0.00     0.026 C 
ENDBRANCH  14  17
ENDBRANCH  12  13
ENDBRANCH   9  12
ENDBRANCH   1   8
BRANCH   4  19
HETATM   19  N   UNL     1     -41.500 -52.597  12.561  1.00  0.00    -0.362 N 
HETATM   20  C   UNL     1     -42.871 -53.061  12.316  1.00  0.00     0.156 C 
HETATM   21  C   UNL     1     -43.545 -53.502  13.636  1.00  0.00     0.136 C 
HETATM   22  C   UNL     1     -44.895 -54.154  13.360  1.00  0.00     0.041 C 
HETATM   23  O   UNL     1     -42.739 -54.467  14.337  1.00  0.00    -0.378 OA
HETATM   24  C   UNL     1     -41.451 -53.908  14.668  1.00  0.00     0.136 C 
HETATM   25  C   UNL     1     -40.685 -54.977  15.436  1.00  0.00     0.041 C 
HETATM   26  C   UNL     1     -40.688 -53.496  13.395  1.00  0.00     0.156 C 
ENDBRANCH   4  19
TORSDOF 5
ENDMDL
MODEL 6
REMARK VINA RESULT:      -5.8      3.084      7.830
REMARK  5 active torsions:
REMARK  status: ('A' for Active; 'I' for Inactive)
REMARK    1  A    between atoms: C_2  and  N_3 
REMARK       I    between atoms: N_3  and  C_4 
REMARK    2  A    between atoms: C_4  and  C_6 
REMARK    3  A    between atoms: C_6  and  N_7 
REMARK       I    between atoms: N_7  and  C_8 
REMARK    4  A    between atoms: C_8  and  C_10 
REMARK    5  A    between atoms: C_13  and  N_17 
ROOT
HETATM    1  C   UNL     1     -41.656 -50.553  12.157  1.00  0.00     0.047 A 
HETATM    2  C   UNL     1     -42.580 -49.622  12.615  1.00  0.00     0.022 A 
HETATM    3  C   UNL     1     -42.267 -48.261  12.563  1.00  0.00     0.049 A 
HETATM    4  C   UNL     1     -41.033 -47.832  12.066  1.00  0.00     0.103 A 
HETATM    5  N   UNL     1     -40.121 -48.745  11.657  1.00  0.00    -0.351 N 
ATOM      6  HN  UNL     1     -39.209 -48.447  11.313  1.00  0.00     0.166 HD
HETATM    7  C   UNL     1     -40.439 -50.066  11.713  1.00  0.00     0.106 A 
ENDROOT
BRANCH   1   8
HETATM    8  C   UNL     1     -42.003 -51.993  12.181  1.00  0.00     0.253 C 
HETATM    9  N   UNL     1     -43.325 -52.321  12.387  1.00  0.00    -0.348 N 
HETATM   10  H   UNL     1     -43.966 -51.621  12.735  1.00  0.00     0.163 HD
HETATM   11  O   UNL     1     -41.120 -52.842  12.103  1.00  0.00    -0.268 OA
BRANCH   9  12
HETATM   12  C   UNL     1     -43.744 -53.708  12.524  1.00  0.00     0.225 C 
BRANCH  12  13
HETATM   13  C   UNL     1     -44.958 -53.845  13.447  1.00  0.00     0.235 C 
HETATM   14  N   UNL     1     -45.116 -52.807  14.341  1.00  0.00    -0.360 N 
HETATM   15  H   UNL     1     -44.442 -52.043  14.312  1.00  0.00     0.162 HD
HETATM   16  O   UNL     1     -45.698 -54.825  13.408  1.00  0.00    -0.272 OA
BRANCH  14  17
HETATM   17  C   UNL     1     -46.192 -52.773  15.308  1.00  0.00     0.118 C 
HETATM   18  C   UNL     1     -47.014 -51.502  15.198  1.00  0.00     0.026 C 
ENDBRANCH  14  17
ENDBRANCH  12  13
ENDBRANCH   9  12
ENDBRANCH   1   8
BRANCH   4  19
HETATM   19  N   UNL     1     -40.706 -46.495  12.042  1.00  0.00    -0.362 N 
HETATM   20  C   UNL     1     -41.642 -45.441  12.454  1.00  0.00     0.156 C 
HETATM   21  C   UNL     1     -42.038 -44.557  11.249  1.00  0.00     0.136 C 
HETATM   22  C   UNL     1     -42.859 -43.358  11.706  1.00  0.00     0.041 C 
HETATM   23  O   UNL     1     -40.875 -44.046  10.572  1.00  0.00    -0.378 OA
HETATM   24  C   UNL     1     -40.061 -45.129  10.074  1.00  0.00     0.136 C 
HETATM   25  C   UNL     1     -38.881 -44.499   9.345  1.00  0.00     0.041 C 
HETATM   26  C   UNL     1     -39.575 -46.027  11.227  1.00  0.00     0.156 C 
ENDBRANCH   4  19
TORSDOF 5
ENDMDL
MODEL 7
REMARK VINA RESULT:      -5.6      2.192      2.673
REMARK  5 active torsions:
REMARK  status: ('A' for Active; 'I' for Inactive)
REMARK    1  A    between atoms: C_2  and  N_3 
REMARK       I    between atoms: N_3  and  C_4 
REMARK    2  A    between atoms: C_4  and  C_6 
REMARK    3  A    between atoms: C_6  and  N_7 
REMARK       I    between atoms: N_7  and  C_8 
REMARK    4  A    between atoms: C_8  and  C_10 
REMARK    5  A    between atoms: C_13  and  N_17 
ROOT
HETATM    1  C   UNL     1     -41.292 -49.099  12.095  1.00  0.00     0.047 A 
HETATM    2  C   UNL     1     -40.178 -48.578  12.739  1.00  0.00     0.022 A 
HETATM    3  C   UNL     1     -39.334 -49.433  13.452  1.00  0.00     0.049 A 
HETATM    4  C   UNL     1     -39.606 -50.801  13.530  1.00  0.00     0.103 A 
HETATM    5  N   UNL     1     -40.715 -51.299  12.933  1.00  0.00    -0.351 N 
ATOM      6  HN  UNL     1     -40.938 -52.291  13.000  1.00  0.00     0.166 HD
HETATM    7  C   UNL     1     -41.527 -50.455  12.242  1.00  0.00     0.106 A 
ENDROOT
BRANCH   1   8
HETATM    8  C   UNL     1     -42.167 -48.196  11.310  1.00  0.00     0.253 C 
HETATM    9  N   UNL     1     -41.746 -47.852  10.044  1.00  0.00    -0.348 N 
HETATM   10  H   UNL     1     -40.788 -48.021   9.772  1.00  0.00     0.163 HD
HETATM   11  O   UNL     1     -43.177 -47.719  11.819  1.00  0.00    -0.268 OA
BRANCH   9  12
HETATM   12  C   UNL     1     -42.490 -46.895   9.239  1.00  0.00     0.225 C 
BRANCH  12  13
HETATM   13  C   UNL     1     -43.626 -47.570   8.463  1.00  0.00     0.235 C 
HETATM   14  N   UNL     1     -44.813 -47.667   9.157  1.00  0.00    -0.360 N 
HETATM   15  H   UNL     1     -44.849 -47.282  10.101  1.00  0.00     0.162 HD
HETATM   16  O   UNL     1     -43.464 -48.017   7.330  1.00  0.00    -0.272 OA
BRANCH  14  17
HETATM   17  C   UNL     1     -45.990 -48.294   8.597  1.00  0.00     0.118 C 
HETATM   18  C   UNL     1     -47.266 -47.592   9.026  1.00  0.00     0.026 C 
ENDBRANCH  14  17
ENDBRANCH  12  13
ENDBRANCH   9  12
ENDBRANCH   1   8
BRANCH   4  19
HETATM   19  N   UNL     1     -38.797 -51.644  14.258  1.00  0.00    -0.362 N 
HETATM   20  C   UNL     1     -38.922 -53.106  14.204  1.00  0.00     0.156 C 
HETATM   21  C   UNL     1     -39.395 -53.667  15.565  1.00  0.00     0.136 C 
HETATM   22  C   UNL     1     -39.348 -55.190  15.566  1.00  0.00     0.041 C 
HETATM   23  O   UNL     1     -38.551 -53.212  16.638  1.00  0.00    -0.378 OA
HETATM   24  C   UNL     1     -38.573 -51.772  16.726  1.00  0.00     0.136 C 
HETATM   25  C   UNL     1     -37.689 -51.384  17.904  1.00  0.00     0.041 C 
HETATM   26  C   UNL     1     -38.057 -51.134  15.421  1.00  0.00     0.156 C 
ENDBRANCH   4  19
TORSDOF 5
ENDMDL
MODEL 8
REMARK VINA RESULT:      -5.4      4.756      7.081
REMARK  5 active torsions:
REMARK  status: ('A' for Active; 'I' for Inactive)
REMARK    1  A    between atoms: C_2  and  N_3 
REMARK       I    between atoms: N_3  and  C_4 
REMARK    2  A    between atoms: C_4  and  C_6 
REMARK    3  A    between atoms: C_6  and  N_7 
REMARK       I    between atoms: N_7  and  C_8 
REMARK    4  A    between atoms: C_8  and  C_10 
REMARK    5  A    between atoms: C_13  and  N_17 
ROOT
HETATM    1  C   UNL     1     -40.320 -54.526  15.031  1.00  0.00     0.047 A 
HETATM    2  C   UNL     1     -38.989 -54.919  15.077  1.00  0.00     0.022 A 
HETATM    3  C   UNL     1     -38.495 -55.543  16.225  1.00  0.00     0.049 A 
HETATM    4  C   UNL     1     -39.324 -55.765  17.327  1.00  0.00     0.103 A 
HETATM    5  N   UNL     1     -40.611 -55.345  17.294  1.00  0.00    -0.351 N 
ATOM      6  HN  UNL     1     -41.221 -55.481  18.100  1.00  0.00     0.166 HD
HETATM    7  C   UNL     1     -41.078 -54.739  16.169  1.00  0.00     0.106 A 
ENDROOT
BRANCH   1   8
HETATM    8  C   UNL     1     -40.851 -53.895  13.800  1.00  0.00     0.253 C 
HETATM    9  N   UNL     1     -42.217 -53.744  13.707  1.00  0.00    -0.348 N 
HETATM   10  H   UNL     1     -42.821 -54.251  14.340  1.00  0.00     0.163 HD
HETATM   11  O   UNL     1     -40.094 -53.605  12.879  1.00  0.00    -0.268 OA
BRANCH   9  12
HETATM   12  C   UNL     1     -42.836 -53.226  12.496  1.00  0.00     0.225 C 
BRANCH  12  13
HETATM   13  C   UNL     1     -44.363 -53.327  12.552  1.00  0.00     0.235 C 
HETATM   14  N   UNL     1     -45.015 -52.114  12.594  1.00  0.00    -0.360 N 
HETATM   15  H   UNL     1     -44.450 -51.266  12.571  1.00  0.00     0.162 HD
HETATM   16  O   UNL     1     -44.942 -54.410  12.595  1.00  0.00    -0.272 OA
BRANCH  14  17
HETATM   17  C   UNL     1     -46.456 -52.010  12.673  1.00  0.00     0.118 C 
HETATM   18  C   UNL     1     -47.081 -51.740  11.317  1.00  0.00     0.026 C 
ENDBRANCH  14  17
ENDBRANCH  12  13
ENDBRANCH   9  12
ENDBRANCH   1   8
BRANCH   4  19
HETATM   19  N   UNL     1     -38.836 -56.351  18.474  1.00  0.00    -0.362 N 
HETATM   20  C   UNL     1     -37.472 -56.885  18.573  1.00  0.00     0.156 C 
HETATM   21  C   UNL     1     -37.496 -58.422  18.741  1.00  0.00     0.136 C 
HETATM   22  C   UNL     1     -36.097 -58.954  19.028  1.00  0.00     0.041 C 
HETATM   23  O   UNL     1     -38.337 -58.814  19.841  1.00  0.00    -0.378 OA
HETATM   24  C   UNL     1     -39.694 -58.376  19.623  1.00  0.00     0.136 C 
HETATM   25  C   UNL     1     -40.515 -58.863  20.810  1.00  0.00     0.041 C 
HETATM   26  C   UNL     1     -39.764 -56.841  19.504  1.00  0.00     0.156 C 
ENDBRANCH   4  19
TORSDOF 5
ENDMDL
MODEL 9
REMARK VINA RESULT:      -5.4      3.090      8.353
REMARK  5 active torsions:
REMARK  status: ('A' for Active; 'I' for Inactive)
REMARK    1  A    between atoms: C_2  and  N_3 
REMARK       I    between atoms: N_3  and  C_4 
REMARK    2  A    between atoms: C_4  and  C_6 
REMARK    3  A    between atoms: C_6  and  N_7 
REMARK       I    between atoms: N_7  and  C_8 
REMARK    4  A    between atoms: C_8  and  C_10 
REMARK    5  A    between atoms: C_13  and  N_17 
ROOT
HETATM    1  C   UNL     1     -43.205 -49.126  13.547  1.00  0.00     0.047 A 
HETATM    2  C   UNL     1     -42.498 -48.448  14.532  1.00  0.00     0.022 A 
HETATM    3  C   UNL     1     -41.834 -47.262  14.209  1.00  0.00     0.049 A 
HETATM    4  C   UNL     1     -41.868 -46.760  12.905  1.00  0.00     0.103 A 
HETATM    5  N   UNL     1     -42.525 -47.444  11.939  1.00  0.00    -0.351 N 
ATOM      6  HN  UNL     1     -42.539 -47.100  10.980  1.00  0.00     0.166 HD
HETATM    7  C   UNL     1     -43.167 -48.597  12.269  1.00  0.00     0.106 A 
ENDROOT
BRANCH   1   8
HETATM    8  C   UNL     1     -43.937 -50.366  13.899  1.00  0.00     0.253 C 
HETATM    9  N   UNL     1     -44.672 -50.969  12.902  1.00  0.00    -0.348 N 
HETATM   10  H   UNL     1     -44.881 -50.458  12.055  1.00  0.00     0.163 HD
HETATM   11  O   UNL     1     -43.943 -50.771  15.057  1.00  0.00    -0.268 OA
BRANCH   9  12
HETATM   12  C   UNL     1     -45.501 -52.133  13.178  1.00  0.00     0.225 C 
BRANCH  12  13
HETATM   13  C   UNL     1     -44.669 -53.418  13.238  1.00  0.00     0.235 C 
HETATM   14  N   UNL     1     -44.201 -53.737  14.495  1.00  0.00    -0.360 N 
HETATM   15  H   UNL     1     -44.447 -53.121  15.268  1.00  0.00     0.162 HD
HETATM   16  O   UNL     1     -44.418 -54.078  12.233  1.00  0.00    -0.272 OA
BRANCH  14  17
HETATM   17  C   UNL     1     -43.378 -54.902  14.743  1.00  0.00     0.118 C 
HETATM   18  C   UNL     1     -41.914 -54.538  14.903  1.00  0.00     0.026 C 
ENDBRANCH  14  17
ENDBRANCH  12  13
ENDBRANCH   9  12
ENDBRANCH   1   8
BRANCH   4  19
HETATM   19  N   UNL     1     -41.189 -45.609  12.573  1.00  0.00    -0.362 N 
HETATM   20  C   UNL     1     -41.783 -44.272  12.704  1.00  0.00     0.156 C 
HETATM   21  C   UNL     1     -41.978 -43.620  11.315  1.00  0.00     0.136 C 
HETATM   22  C   UNL     1     -42.420 -42.168  11.459  1.00  0.00     0.041 C 
HETATM   23  O   UNL     1     -40.752 -43.621  10.561  1.00  0.00    -0.378 OA
HETATM   24  C   UNL     1     -40.288 -44.971  10.350  1.00  0.00     0.136 C 
HETATM   25  C   UNL     1     -39.016 -44.879   9.518  1.00  0.00     0.041 C 
HETATM   26  C   UNL     1     -40.013 -45.674  11.694  1.00  0.00     0.156 C 
ENDBRANCH   4  19
TORSDOF 5
ENDMDL
