MODEL 1
REMARK VINA RESULT:      -6.5      0.000      0.000
REMARK  3 active torsions:
REMARK  status: ('A' for Active; 'I' for Inactive)
REMARK    1  A    between atoms: C_2  and  N_5 
REMARK       I    between atoms: N_5  and  C_6 
REMARK    2  A    between atoms: C_6  and  C_8 
REMARK    3  A    between atoms: C_11  and  N_17 
ROOT
HETATM    1  C   UNL     1     -42.238 -50.378  12.383  1.00  0.00     0.139 A 
HETATM    2  N   UNL     1     -42.660 -49.210  11.812  1.00  0.00    -0.184 N 
ATOM      3  HN  UNL     1     -43.592 -48.838  11.993  1.00  0.00     0.184 HD
HETATM    4  C   UNL     1     -41.801 -48.574  11.004  1.00  0.00     0.680 A 
HETATM    5  N   UNL     1     -40.551 -49.019  10.801  1.00  0.00    -0.200 N 
ATOM      6  HN  UNL     1     -39.905 -48.502  10.204  1.00  0.00     0.183 HD
HETATM    7  C   UNL     1     -40.168 -50.164  11.404  1.00  0.00     0.132 A 
HETATM    8  C   UNL     1     -40.978 -50.910  12.217  1.00  0.00     0.082 A 
HETATM    9 CL   UNL     1     -40.341 -52.315  12.966  1.00  0.00    -0.080 Cl
ENDROOT
BRANCH   1  10
HETATM   10  C   UNL     1     -43.263 -51.057  13.240  1.00  0.00     0.271 C 
HETATM   11  N   UNL     1     -44.429 -51.411  12.585  1.00  0.00    -0.348 N 
HETATM   12  H   UNL     1     -44.434 -51.273  11.578  1.00  0.00     0.163 HD
HETATM   13  O   UNL     1     -43.061 -51.270  14.428  1.00  0.00    -0.266 OA
BRANCH  11  14
HETATM   14  C   UNL     1     -45.603 -52.006  13.239  1.00  0.00     0.022 C 
HETATM   15  C   UNL     1     -45.956 -51.239  14.526  1.00  0.00     0.037 C 
HETATM   16  C   UNL     1     -45.361 -53.489  13.560  1.00  0.00     0.037 C 
HETATM   17  C   UNL     1     -46.805 -51.907  12.283  1.00  0.00     0.037 C 
ENDBRANCH  11  14
ENDBRANCH   1  10
BRANCH   4  18
HETATM   18  N   UNL     1     -42.210 -47.473  10.310  1.00  0.00    -0.214 N 
HETATM   19  C   UNL     1     -41.590 -46.163  10.483  1.00  0.00     0.167 C 
HETATM   20  C   UNL     1     -42.687 -45.085  10.441  1.00  0.00     0.188 C 
HETATM   21  O   UNL     1     -43.480 -45.177   9.242  1.00  0.00    -0.388 OA
HETATM   22  C   UNL     1     -44.113 -46.466   9.158  1.00  0.00     0.188 C 
HETATM   23  C   UNL     1     -43.076 -47.600   9.136  1.00  0.00     0.167 C 
ENDBRANCH   4  18
TORSDOF 3
ENDMDL
MODEL 2
REMARK VINA RESULT:      -6.3      2.537      6.187
REMARK  3 active torsions:
REMARK  status: ('A' for Active; 'I' for Inactive)
REMARK    1  A    between atoms: C_2  and  N_5 
REMARK       I    between atoms: N_5  and  C_6 
REMARK    2  A    between atoms: C_6  and  C_8 
REMARK    3  A    between atoms: C_11  and  N_17 
ROOT
HETATM    1  C   UNL     1     -41.614 -48.981  11.626  1.00  0.00     0.139 A 
HETATM    2  N   UNL     1     -42.034 -50.264  11.842  1.00  0.00    -0.184 N 
ATOM      3  HN  UNL     1     -42.966 -50.571  11.563  1.00  0.00     0.184 HD
HETATM    4  C   UNL     1     -41.173 -51.102  12.436  1.00  0.00     0.680 A 
HETATM    5  N   UNL     1     -39.924 -50.730  12.756  1.00  0.00    -0.200 N 
ATOM      6  HN  UNL     1     -39.276 -51.394  13.182  1.00  0.00     0.183 HD
HETATM    7  C   UNL     1     -39.543 -49.461  12.504  1.00  0.00     0.132 A 
HETATM    8  C   UNL     1     -40.355 -48.516  11.935  1.00  0.00     0.082 A 
HETATM    9 CL   UNL     1     -39.721 -46.955  11.617  1.00  0.00    -0.080 Cl
ENDROOT
BRANCH   1  10
HETATM   10  C   UNL     1     -42.641 -48.089  10.997  1.00  0.00     0.271 C 
HETATM   11  N   UNL     1     -42.831 -48.284   9.641  1.00  0.00    -0.348 N 
HETATM   12  H   UNL     1     -42.338 -49.073   9.231  1.00  0.00     0.163 HD
HETATM   13  O   UNL     1     -43.252 -47.257  11.655  1.00  0.00    -0.266 OA
BRANCH  11  14
HETATM   14  C   UNL     1     -43.719 -47.469   8.800  1.00  0.00     0.022 C 
HETATM   15  C   UNL     1     -43.284 -45.992   8.820  1.00  0.00     0.037 C 
HETATM   16  C   UNL     1     -45.180 -47.595   9.260  1.00  0.00     0.037 C 
HETATM   17  C   UNL     1     -43.622 -47.971   7.348  1.00  0.00     0.037 C 
ENDBRANCH  11  14
ENDBRANCH   1  10
BRANCH   4  18
HETATM   18  N   UNL     1     -41.580 -52.356  12.789  1.00  0.00    -0.214 N 
HETATM   19  C   UNL     1     -42.930 -52.843  12.524  1.00  0.00     0.167 C 
HETATM   20  C   UNL     1     -43.400 -53.681  13.727  1.00  0.00     0.188 C 
HETATM   21  O   UNL     1     -42.472 -54.736  14.037  1.00  0.00    -0.388 OA
HETATM   22  C   UNL     1     -41.177 -54.191  14.348  1.00  0.00     0.188 C 
HETATM   23  C   UNL     1     -40.611 -53.385  13.168  1.00  0.00     0.167 C 
ENDBRANCH   4  18
TORSDOF 3
ENDMDL
MODEL 3
REMARK VINA RESULT:      -6.0      1.743      2.357
REMARK  3 active torsions:
REMARK  status: ('A' for Active; 'I' for Inactive)
REMARK    1  A    between atoms: C_2  and  N_5 
REMARK       I    between atoms: N_5  and  C_6 
REMARK    2  A    between atoms: C_6  and  C_8 
REMARK    3  A    between atoms: C_11  and  N_17 
ROOT
HETATM    1  C   UNL     1     -42.299 -51.914  12.596  1.00  0.00     0.139 A 
HETATM    2  N   UNL     1     -42.199 -50.639  12.114  1.00  0.00    -0.184 N 
ATOM      3  HN  UNL     1     -43.024 -50.120  11.814  1.00  0.00     0.184 HD
HETATM    4  C   UNL     1     -40.975 -50.097  12.053  1.00  0.00     0.680 A 
HETATM    5  N   UNL     1     -39.887 -50.745  12.499  1.00  0.00    -0.200 N 
ATOM      6  HN  UNL     1     -38.968 -50.301  12.468  1.00  0.00     0.183 HD
HETATM    7  C   UNL     1     -40.034 -51.993  12.988  1.00  0.00     0.132 A 
HETATM    8  C   UNL     1     -41.232 -52.651  13.062  1.00  0.00     0.082 A 
HETATM    9 CL   UNL     1     -41.282 -54.216  13.762  1.00  0.00    -0.080 Cl
ENDROOT
BRANCH   1  10
HETATM   10  C   UNL     1     -43.690 -52.471  12.598  1.00  0.00     0.271 C 
HETATM   11  N   UNL     1     -44.606 -51.748  13.341  1.00  0.00    -0.348 N 
HETATM   12  H   UNL     1     -44.274 -50.866  13.721  1.00  0.00     0.163 HD
HETATM   13  O   UNL     1     -43.970 -53.491  11.982  1.00  0.00    -0.266 OA
BRANCH  11  14
HETATM   14  C   UNL     1     -46.003 -52.151  13.559  1.00  0.00     0.022 C 
HETATM   15  C   UNL     1     -46.085 -53.630  13.977  1.00  0.00     0.037 C 
HETATM   16  C   UNL     1     -46.846 -51.912  12.297  1.00  0.00     0.037 C 
HETATM   17  C   UNL     1     -46.589 -51.302  14.701  1.00  0.00     0.037 C 
ENDBRANCH  11  14
ENDBRANCH   1  10
BRANCH   4  18
HETATM   18  N   UNL     1     -40.800 -48.878  11.466  1.00  0.00    -0.214 N 
HETATM   19  C   UNL     1     -39.585 -48.090  11.645  1.00  0.00     0.167 C 
HETATM   20  C   UNL     1     -39.971 -46.606  11.776  1.00  0.00     0.188 C 
HETATM   21  O   UNL     1     -40.769 -46.163  10.662  1.00  0.00    -0.388 OA
HETATM   22  C   UNL     1     -41.979 -46.935  10.573  1.00  0.00     0.188 C 
HETATM   23  C   UNL     1     -41.677 -48.430  10.382  1.00  0.00     0.167 C 
ENDBRANCH   4  18
TORSDOF 3
ENDMDL
MODEL 4
REMARK VINA RESULT:      -5.9      3.409      4.382
REMARK  3 active torsions:
REMARK  status: ('A' for Active; 'I' for Inactive)
REMARK    1  A    between atoms: C_2  and  N_5 
REMARK       I    between atoms: N_5  and  C_6 
REMARK    2  A    between atoms: C_6  and  C_8 
REMARK    3  A    between atoms: C_11  and  N_17 
ROOT
HETATM    1  C   UNL     1     -42.548 -53.204  13.629  1.00  0.00     0.139 A 
HETATM    2  N   UNL     1     -41.863 -52.151  13.090  1.00  0.00    -0.184 N 
ATOM      3  HN  UNL     1     -42.340 -51.432  12.546  1.00  0.00     0.184 HD
HETATM    4  C   UNL     1     -40.541 -52.101  13.305  1.00  0.00     0.680 A 
HETATM    5  N   UNL     1     -39.909 -53.007  14.067  1.00  0.00    -0.200 N 
ATOM      6  HN  UNL     1     -38.906 -52.933  14.240  1.00  0.00     0.183 HD
HETATM    7  C   UNL     1     -40.628 -54.017  14.600  1.00  0.00     0.132 A 
HETATM    8  C   UNL     1     -41.974 -54.181  14.412  1.00  0.00     0.082 A 
HETATM    9 CL   UNL     1     -42.773 -55.479  15.198  1.00  0.00    -0.080 Cl
ENDROOT
BRANCH   1  10
HETATM   10  C   UNL     1     -44.014 -53.219  13.315  1.00  0.00     0.271 C 
HETATM   11  N   UNL     1     -44.791 -52.410  14.124  1.00  0.00    -0.348 N 
HETATM   12  H   UNL     1     -44.287 -51.814  14.775  1.00  0.00     0.163 HD
HETATM   13  O   UNL     1     -44.464 -53.904  12.407  1.00  0.00    -0.266 OA
BRANCH  11  14
HETATM   14  C   UNL     1     -46.258 -52.332  14.059  1.00  0.00     0.022 C 
HETATM   15  C   UNL     1     -46.892 -53.691  14.410  1.00  0.00     0.037 C 
HETATM   16  C   UNL     1     -46.722 -51.879  12.666  1.00  0.00     0.037 C 
HETATM   17  C   UNL     1     -46.744 -51.301  15.092  1.00  0.00     0.037 C 
ENDBRANCH  11  14
ENDBRANCH   1  10
BRANCH   4  18
HETATM   18  N   UNL     1     -39.789 -51.144  12.688  1.00  0.00    -0.214 N 
HETATM   19  C   UNL     1     -38.344 -51.050  12.868  1.00  0.00     0.167 C 
HETATM   20  C   UNL     1     -37.951 -49.564  12.951  1.00  0.00     0.188 C 
HETATM   21  O   UNL     1     -38.425 -48.822  11.812  1.00  0.00    -0.388 OA
HETATM   22  C   UNL     1     -39.859 -48.903  11.722  1.00  0.00     0.188 C 
HETATM   23  C   UNL     1     -40.330 -50.358  11.578  1.00  0.00     0.167 C 
ENDBRANCH   4  18
TORSDOF 3
ENDMDL
MODEL 5
REMARK VINA RESULT:      -5.9      2.145      5.990
REMARK  3 active torsions:
REMARK  status: ('A' for Active; 'I' for Inactive)
REMARK    1  A    between atoms: C_2  and  N_5 
REMARK       I    between atoms: N_5  and  C_6 
REMARK    2  A    between atoms: C_6  and  C_8 
REMARK    3  A    between atoms: C_11  and  N_17 
ROOT
HETATM    1  C   UNL     1     -42.274 -48.723  11.977  1.00  0.00     0.139 A 
HETATM    2  N   UNL     1     -43.072 -49.831  12.038  1.00  0.00    -0.184 N 
ATOM      3  HN  UNL     1     -43.756 -50.033  11.309  1.00  0.00     0.184 HD
HETATM    4  C   UNL     1     -42.919 -50.643  13.094  1.00  0.00     0.680 A 
HETATM    5  N   UNL     1     -41.984 -50.424  14.031  1.00  0.00    -0.200 N 
ATOM      6  HN  UNL     1     -41.868 -51.071  14.811  1.00  0.00     0.183 HD
HETATM    7  C   UNL     1     -41.202 -49.330  13.920  1.00  0.00     0.132 A 
HETATM    8  C   UNL     1     -41.300 -48.419  12.902  1.00  0.00     0.082 A 
HETATM    9 CL   UNL     1     -40.201 -47.104  12.853  1.00  0.00    -0.080 Cl
ENDROOT
BRANCH   1  10
HETATM   10  C   UNL     1     -42.527 -47.840  10.793  1.00  0.00     0.271 C 
HETATM   11  N   UNL     1     -43.823 -47.869  10.310  1.00  0.00    -0.348 N 
HETATM   12  H   UNL     1     -44.492 -48.399  10.861  1.00  0.00     0.163 HD
HETATM   13  O   UNL     1     -41.637 -47.155  10.307  1.00  0.00    -0.266 OA
BRANCH  11  14
HETATM   14  C   UNL     1     -44.279 -47.155   9.108  1.00  0.00     0.022 C 
HETATM   15  C   UNL     1     -43.877 -45.670   9.171  1.00  0.00     0.037 C 
HETATM   16  C   UNL     1     -45.800 -47.283   8.938  1.00  0.00     0.037 C 
HETATM   17  C   UNL     1     -43.599 -47.778   7.876  1.00  0.00     0.037 C 
ENDBRANCH  11  14
ENDBRANCH   1  10
BRANCH   4  18
HETATM   18  N   UNL     1     -43.772 -51.694  13.271  1.00  0.00    -0.214 N 
HETATM   19  C   UNL     1     -43.304 -53.026  13.641  1.00  0.00     0.167 C 
HETATM   20  C   UNL     1     -44.129 -54.072  12.870  1.00  0.00     0.188 C 
HETATM   21  O   UNL     1     -45.543 -53.895  13.077  1.00  0.00    -0.388 OA
HETATM   22  C   UNL     1     -45.954 -52.588  12.639  1.00  0.00     0.188 C 
HETATM   23  C   UNL     1     -45.214 -51.481  13.406  1.00  0.00     0.167 C 
ENDBRANCH   4  18
TORSDOF 3
ENDMDL
MODEL 6
REMARK VINA RESULT:      -5.9      1.820      2.635
REMARK  3 active torsions:
REMARK  status: ('A' for Active; 'I' for Inactive)
REMARK    1  A    between atoms: C_2  and  N_5 
REMARK       I    between atoms: N_5  and  C_6 
REMARK    2  A    between atoms: C_6  and  C_8 
REMARK    3  A    between atoms: C_11  and  N_17 
ROOT
HETATM    1  C   UNL     1     -42.681 -52.057  12.592  1.00  0.00     0.139 A 
HETATM    2  N   UNL     1     -42.855 -50.721  12.362  1.00  0.00    -0.184 N 
ATOM      3  HN  UNL     1     -43.780 -50.293  12.398  1.00  0.00     0.184 HD
HETATM    4  C   UNL     1     -41.762 -49.996  12.088  1.00  0.00     0.680 A 
HETATM    5  N   UNL     1     -40.532 -50.532  12.095  1.00  0.00    -0.200 N 
ATOM      6  HN  UNL     1     -39.711 -49.954  11.911  1.00  0.00     0.183 HD
HETATM    7  C   UNL     1     -40.403 -51.851  12.351  1.00  0.00     0.132 A 
HETATM    8  C   UNL     1     -41.456 -52.687  12.606  1.00  0.00     0.082 A 
HETATM    9 CL   UNL     1     -41.143 -54.333  12.974  1.00  0.00    -0.080 Cl
ENDROOT
BRANCH   1  10
HETATM   10  C   UNL     1     -43.949 -52.814  12.852  1.00  0.00     0.271 C 
HETATM   11  N   UNL     1     -44.314 -52.900  14.183  1.00  0.00    -0.348 N 
HETATM   12  H   UNL     1     -43.751 -52.361  14.835  1.00  0.00     0.163 HD
HETATM   13  O   UNL     1     -44.594 -53.309  11.938  1.00  0.00    -0.266 OA
BRANCH  11  14
HETATM   14  C   UNL     1     -45.467 -53.664  14.682  1.00  0.00     0.022 C 
HETATM   15  C   UNL     1     -45.529 -55.051  14.017  1.00  0.00     0.037 C 
HETATM   16  C   UNL     1     -46.778 -52.902  14.435  1.00  0.00     0.037 C 
HETATM   17  C   UNL     1     -45.304 -53.871  16.198  1.00  0.00     0.037 C 
ENDBRANCH  11  14
ENDBRANCH   1  10
BRANCH   4  18
HETATM   18  N   UNL     1     -41.889 -48.686  11.727  1.00  0.00    -0.214 N 
HETATM   19  C   UNL     1     -43.151 -48.125  11.254  1.00  0.00     0.167 C 
HETATM   20  C   UNL     1     -42.856 -47.139  10.109  1.00  0.00     0.188 C 
HETATM   21  O   UNL     1     -41.905 -46.133  10.502  1.00  0.00    -0.388 OA
HETATM   22  C   UNL     1     -40.665 -46.743  10.900  1.00  0.00     0.188 C 
HETATM   23  C   UNL     1     -40.866 -47.702  12.083  1.00  0.00     0.167 C 
ENDBRANCH   4  18
TORSDOF 3
ENDMDL
MODEL 7
REMARK VINA RESULT:      -5.8      3.815      6.338
REMARK  3 active torsions:
REMARK  status: ('A' for Active; 'I' for Inactive)
REMARK    1  A    between atoms: C_2  and  N_5 
REMARK       I    between atoms: N_5  and  C_6 
REMARK    2  A    between atoms: C_6  and  C_8 
REMARK    3  A    between atoms: C_11  and  N_17 
ROOT
HETATM    1  C   UNL     1     -40.972 -46.685  11.358  1.00  0.00     0.139 A 
HETATM    2  N   UNL     1     -40.440 -47.944  11.301  1.00  0.00    -0.184 N 
ATOM      3  HN  UNL     1     -40.668 -48.582  10.540  1.00  0.00     0.184 HD
HETATM    4  C   UNL     1     -39.605 -48.304  12.287  1.00  0.00     0.680 A 
HETATM    5  N   UNL     1     -39.249 -47.456  13.264  1.00  0.00    -0.200 N 
ATOM      6  HN  UNL     1     -38.590 -47.743  13.988  1.00  0.00     0.183 HD
HETATM    7  C   UNL     1     -39.779 -46.215  13.268  1.00  0.00     0.132 A 
HETATM    8  C   UNL     1     -40.667 -45.759  12.330  1.00  0.00     0.082 A 
HETATM    9 CL   UNL     1     -41.218 -44.138  12.424  1.00  0.00    -0.080 Cl
ENDROOT
BRANCH   1  10
HETATM   10  C   UNL     1     -41.926 -46.364  10.248  1.00  0.00     0.271 C 
HETATM   11  N   UNL     1     -43.057 -47.159  10.204  1.00  0.00    -0.348 N 
HETATM   12  H   UNL     1     -43.179 -47.805  10.980  1.00  0.00     0.163 HD
HETATM   13  O   UNL     1     -41.699 -45.463   9.452  1.00  0.00    -0.266 OA
BRANCH  11  14
HETATM   14  C   UNL     1     -44.086 -47.086   9.156  1.00  0.00     0.022 C 
HETATM   15  C   UNL     1     -45.373 -47.800   9.605  1.00  0.00     0.037 C 
HETATM   16  C   UNL     1     -43.575 -47.697   7.842  1.00  0.00     0.037 C 
HETATM   17  C   UNL     1     -44.428 -45.607   8.902  1.00  0.00     0.037 C 
ENDBRANCH  11  14
ENDBRANCH   1  10
BRANCH   4  18
HETATM   18  N   UNL     1     -39.144 -49.586  12.350  1.00  0.00    -0.214 N 
HETATM   19  C   UNL     1     -40.038 -50.733  12.475  1.00  0.00     0.167 C 
HETATM   20  C   UNL     1     -39.401 -51.756  13.433  1.00  0.00     0.188 C 
HETATM   21  O   UNL     1     -38.072 -52.121  13.017  1.00  0.00    -0.388 OA
HETATM   22  C   UNL     1     -37.224 -50.961  12.971  1.00  0.00     0.188 C 
HETATM   23  C   UNL     1     -37.764 -49.911  11.987  1.00  0.00     0.167 C 
ENDBRANCH   4  18
TORSDOF 3
ENDMDL
MODEL 8
REMARK VINA RESULT:      -5.6      2.009      6.291
REMARK  3 active torsions:
REMARK  status: ('A' for Active; 'I' for Inactive)
REMARK    1  A    between atoms: C_2  and  N_5 
REMARK       I    between atoms: N_5  and  C_6 
REMARK    2  A    between atoms: C_6  and  C_8 
REMARK    3  A    between atoms: C_11  and  N_17 
ROOT
HETATM    1  C   UNL     1     -41.205 -49.720  11.737  1.00  0.00     0.139 A 
HETATM    2  N   UNL     1     -42.408 -50.285  12.056  1.00  0.00    -0.184 N 
ATOM      3  HN  UNL     1     -43.287 -49.803  11.867  1.00  0.00     0.184 HD
HETATM    4  C   UNL     1     -42.388 -51.498  12.627  1.00  0.00     0.680 A 
HETATM    5  N   UNL     1     -41.244 -52.170  12.828  1.00  0.00    -0.200 N 
ATOM      6  HN  UNL     1     -41.255 -53.104  13.239  1.00  0.00     0.183 HD
HETATM    7  C   UNL     1     -40.080 -51.585  12.477  1.00  0.00     0.132 A 
HETATM    8  C   UNL     1     -39.987 -50.337  11.922  1.00  0.00     0.082 A 
HETATM    9 CL   UNL     1     -38.445 -49.739  11.470  1.00  0.00    -0.080 Cl
ENDROOT
BRANCH   1  10
HETATM   10  C   UNL     1     -41.300 -48.348  11.141  1.00  0.00     0.271 C 
HETATM   11  N   UNL     1     -40.835 -47.327  11.951  1.00  0.00    -0.348 N 
HETATM   12  H   UNL     1     -40.385 -47.614  12.815  1.00  0.00     0.163 HD
HETATM   13  O   UNL     1     -41.760 -48.171  10.021  1.00  0.00    -0.266 OA
BRANCH  11  14
HETATM   14  C   UNL     1     -40.910 -45.899  11.613  1.00  0.00     0.022 C 
HETATM   15  C   UNL     1     -42.349 -45.504  11.232  1.00  0.00     0.037 C 
HETATM   16  C   UNL     1     -39.948 -45.555  10.466  1.00  0.00     0.037 C 
HETATM   17  C   UNL     1     -40.505 -45.077  12.849  1.00  0.00     0.037 C 
ENDBRANCH  11  14
ENDBRANCH   1  10
BRANCH   4  18
HETATM   18  N   UNL     1     -43.548 -52.054  13.079  1.00  0.00    -0.214 N 
HETATM   19  C   UNL     1     -43.605 -53.405  13.628  1.00  0.00     0.167 C 
HETATM   20  C   UNL     1     -44.903 -54.080  13.150  1.00  0.00     0.188 C 
HETATM   21  O   UNL     1     -46.064 -53.293  13.473  1.00  0.00    -0.388 OA
HETATM   22  C   UNL     1     -45.979 -51.997  12.856  1.00  0.00     0.188 C 
HETATM   23  C   UNL     1     -44.733 -51.232  13.329  1.00  0.00     0.167 C 
ENDBRANCH   4  18
TORSDOF 3
ENDMDL
MODEL 9
REMARK VINA RESULT:      -5.5      1.968      6.266
REMARK  3 active torsions:
REMARK  status: ('A' for Active; 'I' for Inactive)
REMARK    1  A    between atoms: C_2  and  N_5 
REMARK       I    between atoms: N_5  and  C_6 
REMARK    2  A    between atoms: C_6  and  C_8 
REMARK    3  A    between atoms: C_11  and  N_17 
ROOT
HETATM    1  C   UNL     1     -41.938 -50.814  12.437  1.00  0.00     0.139 A 
HETATM    2  N   UNL     1     -43.185 -51.325  12.668  1.00  0.00    -0.184 N 
ATOM      3  HN  UNL     1     -44.005 -50.720  12.714  1.00  0.00     0.184 HD
HETATM    4  C   UNL     1     -43.287 -52.651  12.832  1.00  0.00     0.680 A 
HETATM    5  N   UNL     1     -42.227 -53.466  12.717  1.00  0.00    -0.200 N 
ATOM      6  HN  UNL     1     -42.333 -54.476  12.818  1.00  0.00     0.183 HD
HETATM    7  C   UNL     1     -41.018 -52.923  12.464  1.00  0.00     0.132 A 
HETATM    8  C   UNL     1     -40.799 -51.579  12.316  1.00  0.00     0.082 A 
HETATM    9 CL   UNL     1     -39.218 -51.030  11.938  1.00  0.00    -0.080 Cl
ENDROOT
BRANCH   1  10
HETATM   10  C   UNL     1     -41.891 -49.322  12.304  1.00  0.00     0.271 C 
HETATM   11  N   UNL     1     -42.398 -48.827  11.116  1.00  0.00    -0.348 N 
HETATM   12  H   UNL     1     -42.842 -49.506  10.504  1.00  0.00     0.163 HD
HETATM   13  O   UNL     1     -41.434 -48.617  13.193  1.00  0.00    -0.266 OA
BRANCH  11  14
HETATM   14  C   UNL     1     -42.377 -47.409  10.730  1.00  0.00     0.022 C 
HETATM   15  C   UNL     1     -40.930 -46.886  10.659  1.00  0.00     0.037 C 
HETATM   16  C   UNL     1     -43.196 -46.559  11.713  1.00  0.00     0.037 C 
HETATM   17  C   UNL     1     -43.001 -47.268   9.331  1.00  0.00     0.037 C 
ENDBRANCH  11  14
ENDBRANCH   1  10
BRANCH   4  18
HETATM   18  N   UNL     1     -44.483 -53.200  13.189  1.00  0.00    -0.214 N 
HETATM   19  C   UNL     1     -45.761 -52.586  12.842  1.00  0.00     0.167 C 
HETATM   20  C   UNL     1     -46.726 -52.743  14.031  1.00  0.00     0.188 C 
HETATM   21  O   UNL     1     -46.855 -54.119  14.435  1.00  0.00    -0.388 OA
HETATM   22  C   UNL     1     -45.576 -54.650  14.822  1.00  0.00     0.188 C 
HETATM   23  C   UNL     1     -44.568 -54.583  13.664  1.00  0.00     0.167 C 
ENDBRANCH   4  18
TORSDOF 3
ENDMDL
