MODEL 1
REMARK VINA RESULT:      -6.8      0.000      0.000
REMARK  4 active torsions:
REMARK  status: ('A' for Active; 'I' for Inactive)
REMARK       I    between atoms: C_2  and  N_4 
REMARK    1  A    between atoms: C_7  and  N_10 
REMARK       I    between atoms: N_10  and  C_11 
REMARK    2  A    between atoms: C_11  and  C_13 
REMARK    3  A    between atoms: C_13  and  N_14 
REMARK    4  A    between atoms: C_18  and  C_21 
ROOT
HETATM    1  N   UNL     1     -41.825 -50.516  11.863  1.00  0.00    -0.355 N 
HETATM    2  C   UNL     1     -41.625 -51.791  12.307  1.00  0.00     0.236 C 
HETATM    3  O   UNL     1     -41.339 -52.655  11.476  1.00  0.00    -0.272 OA
HETATM    4  H   UNL     1     -41.626 -50.435  10.869  1.00  0.00     0.162 HD
ENDROOT
BRANCH   2   5
HETATM    5  C   UNL     1     -41.905 -52.131  13.767  1.00  0.00     0.234 C 
BRANCH   5   6
HETATM    6  N   UNL     1     -43.207 -52.772  13.990  1.00  0.00    -0.315 N 
HETATM    7  C   UNL     1     -43.373 -54.140  13.847  1.00  0.00     0.095 A 
HETATM    8  C   UNL     1     -44.546 -54.726  14.107  1.00  0.00     0.018 A 
HETATM    9  C   UNL     1     -45.657 -53.926  14.538  1.00  0.00     0.023 A 
HETATM   10  C   UNL     1     -45.565 -52.586  14.627  1.00  0.00     0.115 A 
HETATM   11  C   UNL     1     -44.271 -51.924  14.320  1.00  0.00     0.263 A 
HETATM   12  O   UNL     1     -44.144 -50.706  14.357  1.00  0.00    -0.267 OA
BRANCH  10  13
HETATM   13  C   UNL     1     -46.710 -51.729  15.022  1.00  0.00     0.422 C 
HETATM   14  F   UNL     1     -46.486 -50.824  16.001  1.00  0.00    -0.166 F 
HETATM   15  F   UNL     1     -47.165 -51.019  13.950  1.00  0.00    -0.166 F 
HETATM   16  F   UNL     1     -47.763 -52.489  15.433  1.00  0.00    -0.166 F 
ENDBRANCH  10  13
ENDBRANCH   5   6
ENDBRANCH   2   5
BRANCH   1  17
HETATM   17  C   UNL     1     -42.029 -49.299  12.644  1.00  0.00     0.087 C 
HETATM   18  C   UNL     1     -43.085 -48.351  12.055  1.00  0.00     0.045 C 
HETATM   19  C   UNL     1     -42.613 -47.686  10.772  1.00  0.00     0.127 C 
HETATM   20  N   UNL     1     -41.339 -47.014  10.978  1.00  0.00    -0.352 N 
HETATM   21  C   UNL     1     -41.121 -45.815  10.307  1.00  0.00     0.215 C 
HETATM   22  C   UNL     1     -40.270 -47.840  11.535  1.00  0.00     0.127 C 
HETATM   23  C   UNL     1     -39.796 -45.142  10.540  1.00  0.00     0.117 C 
HETATM   24  O   UNL     1     -41.967 -45.289   9.584  1.00  0.00    -0.274 OA
HETATM   25  C   UNL     1     -40.705 -48.546  12.816  1.00  0.00     0.045 C 
ENDBRANCH   1  17
TORSDOF 4
ENDMDL
MODEL 2
REMARK VINA RESULT:      -6.3      2.357      3.047
REMARK  4 active torsions:
REMARK  status: ('A' for Active; 'I' for Inactive)
REMARK       I    between atoms: C_2  and  N_4 
REMARK    1  A    between atoms: C_7  and  N_10 
REMARK       I    between atoms: N_10  and  C_11 
REMARK    2  A    between atoms: C_11  and  C_13 
REMARK    3  A    between atoms: C_13  and  N_14 
REMARK    4  A    between atoms: C_18  and  C_21 
ROOT
HETATM    1  N   UNL     1     -41.020 -50.261  12.498  1.00  0.00    -0.355 N 
HETATM    2  C   UNL     1     -40.490 -51.518  12.470  1.00  0.00     0.236 C 
HETATM    3  O   UNL     1     -39.292 -51.648  12.726  1.00  0.00    -0.272 OA
HETATM    4  H   UNL     1     -40.336 -49.579  12.816  1.00  0.00     0.162 HD
ENDROOT
BRANCH   2   5
HETATM    5  C   UNL     1     -41.345 -52.683  11.982  1.00  0.00     0.234 C 
BRANCH   5   6
HETATM    6  N   UNL     1     -41.958 -53.465  13.063  1.00  0.00    -0.315 N 
HETATM    7  C   UNL     1     -41.195 -54.014  14.080  1.00  0.00     0.095 A 
HETATM    8  C   UNL     1     -41.764 -54.676  15.093  1.00  0.00     0.018 A 
HETATM    9  C   UNL     1     -43.190 -54.827  15.128  1.00  0.00     0.023 A 
HETATM   10  C   UNL     1     -43.969 -54.371  14.129  1.00  0.00     0.115 A 
HETATM   11  C   UNL     1     -43.344 -53.652  12.989  1.00  0.00     0.263 A 
HETATM   12  O   UNL     1     -44.005 -53.244  12.042  1.00  0.00    -0.267 OA
BRANCH  10  13
HETATM   13  C   UNL     1     -45.441 -54.556  14.113  1.00  0.00     0.422 C 
HETATM   14  F   UNL     1     -46.169 -53.603  13.488  1.00  0.00    -0.166 F 
HETATM   15  F   UNL     1     -45.767 -55.735  13.509  1.00  0.00    -0.166 F 
HETATM   16  F   UNL     1     -45.931 -54.644  15.381  1.00  0.00    -0.166 F 
ENDBRANCH  10  13
ENDBRANCH   5   6
ENDBRANCH   2   5
BRANCH   1  17
HETATM   17  C   UNL     1     -42.417 -49.856  12.375  1.00  0.00     0.087 C 
HETATM   18  C   UNL     1     -42.626 -48.583  11.541  1.00  0.00     0.045 C 
HETATM   19  C   UNL     1     -42.122 -47.338  12.251  1.00  0.00     0.127 C 
HETATM   20  N   UNL     1     -42.718 -47.220  13.574  1.00  0.00    -0.352 N 
HETATM   21  C   UNL     1     -43.026 -45.946  14.037  1.00  0.00     0.215 C 
HETATM   22  C   UNL     1     -42.567 -48.387  14.442  1.00  0.00     0.127 C 
HETATM   23  C   UNL     1     -43.642 -45.856  15.406  1.00  0.00     0.117 C 
HETATM   24  O   UNL     1     -42.850 -44.929  13.366  1.00  0.00    -0.274 OA
HETATM   25  C   UNL     1     -43.043 -49.667  13.762  1.00  0.00     0.045 C 
ENDBRANCH   1  17
TORSDOF 4
ENDMDL
MODEL 3
REMARK VINA RESULT:      -6.2      3.833      7.445
REMARK  4 active torsions:
REMARK  status: ('A' for Active; 'I' for Inactive)
REMARK       I    between atoms: C_2  and  N_4 
REMARK    1  A    between atoms: C_7  and  N_10 
REMARK       I    between atoms: N_10  and  C_11 
REMARK    2  A    between atoms: C_11  and  C_13 
REMARK    3  A    between atoms: C_13  and  N_14 
REMARK    4  A    between atoms: C_18  and  C_21 
ROOT
HETATM    1  N   UNL     1     -40.033 -49.051  13.167  1.00  0.00    -0.355 N 
HETATM    2  C   UNL     1     -39.964 -47.700  12.987  1.00  0.00     0.236 C 
HETATM    3  O   UNL     1     -40.130 -46.976  13.970  1.00  0.00    -0.272 OA
HETATM    4  H   UNL     1     -40.142 -49.288  14.149  1.00  0.00     0.162 HD
ENDROOT
BRANCH   2   5
HETATM    5  C   UNL     1     -39.838 -47.135  11.576  1.00  0.00     0.234 C 
BRANCH   5   6
HETATM    6  N   UNL     1     -40.978 -46.309  11.161  1.00  0.00    -0.315 N 
HETATM    7  C   UNL     1     -41.104 -44.992  11.572  1.00  0.00     0.095 A 
HETATM    8  C   UNL     1     -42.114 -44.226  11.145  1.00  0.00     0.018 A 
HETATM    9  C   UNL     1     -43.089 -44.777  10.249  1.00  0.00     0.023 A 
HETATM   10  C   UNL     1     -43.049 -46.069   9.874  1.00  0.00     0.115 A 
HETATM   11  C   UNL     1     -41.942 -46.933  10.360  1.00  0.00     0.263 A 
HETATM   12  O   UNL     1     -41.877 -48.121  10.072  1.00  0.00    -0.267 OA
BRANCH  10  13
HETATM   13  C   UNL     1     -44.071 -46.678   8.987  1.00  0.00     0.422 C 
HETATM   14  F   UNL     1     -44.725 -47.762   9.465  1.00  0.00    -0.166 F 
HETATM   15  F   UNL     1     -45.034 -45.765   8.674  1.00  0.00    -0.166 F 
HETATM   16  F   UNL     1     -43.519 -47.054   7.800  1.00  0.00    -0.166 F 
ENDBRANCH  10  13
ENDBRANCH   5   6
ENDBRANCH   2   5
BRANCH   1  17
HETATM   17  C   UNL     1     -39.736 -50.115  12.212  1.00  0.00     0.087 C 
HETATM   18  C   UNL     1     -40.936 -51.023  11.898  1.00  0.00     0.045 C 
HETATM   19  C   UNL     1     -41.311 -51.911  13.073  1.00  0.00     0.127 C 
HETATM   20  N   UNL     1     -40.159 -52.676  13.531  1.00  0.00    -0.352 N 
HETATM   21  C   UNL     1     -40.378 -53.974  13.977  1.00  0.00     0.215 C 
HETATM   22  C   UNL     1     -38.969 -51.893  13.855  1.00  0.00     0.127 C 
HETATM   23  C   UNL     1     -39.170 -54.740  14.442  1.00  0.00     0.117 C 
HETATM   24  O   UNL     1     -41.488 -54.508  13.967  1.00  0.00    -0.274 OA
HETATM   25  C   UNL     1     -38.565 -50.969  12.710  1.00  0.00     0.045 C 
ENDBRANCH   1  17
TORSDOF 4
ENDMDL
MODEL 4
REMARK VINA RESULT:      -6.2      3.359      4.714
REMARK  4 active torsions:
REMARK  status: ('A' for Active; 'I' for Inactive)
REMARK       I    between atoms: C_2  and  N_4 
REMARK    1  A    between atoms: C_7  and  N_10 
REMARK       I    between atoms: N_10  and  C_11 
REMARK    2  A    between atoms: C_11  and  C_13 
REMARK    3  A    between atoms: C_13  and  N_14 
REMARK    4  A    between atoms: C_18  and  C_21 
ROOT
HETATM    1  N   UNL     1     -40.584 -47.454  12.790  1.00  0.00    -0.355 N 
HETATM    2  C   UNL     1     -40.137 -48.331  13.734  1.00  0.00     0.236 C 
HETATM    3  O   UNL     1     -40.498 -48.160  14.900  1.00  0.00    -0.272 OA
HETATM    4  H   UNL     1     -41.247 -46.791  13.185  1.00  0.00     0.162 HD
ENDROOT
BRANCH   2   5
HETATM    5  C   UNL     1     -39.103 -49.385  13.352  1.00  0.00     0.234 C 
BRANCH   5   6
HETATM    6  N   UNL     1     -39.262 -50.660  14.061  1.00  0.00    -0.315 N 
HETATM    7  C   UNL     1     -38.575 -50.925  15.235  1.00  0.00     0.095 A 
HETATM    8  C   UNL     1     -38.766 -52.064  15.908  1.00  0.00     0.018 A 
HETATM    9  C   UNL     1     -39.696 -53.035  15.406  1.00  0.00     0.023 A 
HETATM   10  C   UNL     1     -40.337 -52.854  14.236  1.00  0.00     0.115 A 
HETATM   11  C   UNL     1     -40.115 -51.600  13.470  1.00  0.00     0.263 A 
HETATM   12  O   UNL     1     -40.651 -51.401  12.387  1.00  0.00    -0.267 OA
BRANCH  10  13
HETATM   13  C   UNL     1     -41.267 -53.861  13.668  1.00  0.00     0.422 C 
HETATM   14  F   UNL     1     -40.897 -54.446  12.505  1.00  0.00    -0.166 F 
HETATM   15  F   UNL     1     -41.465 -54.879  14.554  1.00  0.00    -0.166 F 
HETATM   16  F   UNL     1     -42.497 -53.318  13.451  1.00  0.00    -0.166 F 
ENDBRANCH  10  13
ENDBRANCH   5   6
ENDBRANCH   2   5
BRANCH   1  17
HETATM   17  C   UNL     1     -40.425 -47.514  11.339  1.00  0.00     0.087 C 
HETATM   18  C   UNL     1     -40.399 -46.136  10.658  1.00  0.00     0.045 C 
HETATM   19  C   UNL     1     -41.757 -45.456  10.679  1.00  0.00     0.127 C 
HETATM   20  N   UNL     1     -42.778 -46.323  10.107  1.00  0.00    -0.352 N 
HETATM   21  C   UNL     1     -43.788 -45.729   9.358  1.00  0.00     0.215 C 
HETATM   22  C   UNL     1     -42.877 -47.656  10.696  1.00  0.00     0.127 C 
HETATM   23  C   UNL     1     -44.827 -46.650   8.778  1.00  0.00     0.117 C 
HETATM   24  O   UNL     1     -43.832 -44.520   9.132  1.00  0.00    -0.274 OA
HETATM   25  C   UNL     1     -41.530 -48.372  10.715  1.00  0.00     0.045 C 
ENDBRANCH   1  17
TORSDOF 4
ENDMDL
MODEL 5
REMARK VINA RESULT:      -6.1      1.912      2.382
REMARK  4 active torsions:
REMARK  status: ('A' for Active; 'I' for Inactive)
REMARK       I    between atoms: C_2  and  N_4 
REMARK    1  A    between atoms: C_7  and  N_10 
REMARK       I    between atoms: N_10  and  C_11 
REMARK    2  A    between atoms: C_11  and  C_13 
REMARK    3  A    between atoms: C_13  and  N_14 
REMARK    4  A    between atoms: C_18  and  C_21 
ROOT
HETATM    1  N   UNL     1     -40.412 -50.028  12.770  1.00  0.00    -0.355 N 
HETATM    2  C   UNL     1     -40.093 -51.185  13.417  1.00  0.00     0.236 C 
HETATM    3  O   UNL     1     -39.381 -52.001  12.828  1.00  0.00    -0.272 OA
HETATM    4  H   UNL     1     -39.934 -49.960  11.875  1.00  0.00     0.162 HD
ENDROOT
BRANCH   2   5
HETATM    5  C   UNL     1     -40.739 -51.496  14.764  1.00  0.00     0.234 C 
BRANCH   5   6
HETATM    6  N   UNL     1     -41.479 -52.763  14.791  1.00  0.00    -0.315 N 
HETATM    7  C   UNL     1     -40.997 -53.868  15.474  1.00  0.00     0.095 A 
HETATM    8  C   UNL     1     -41.702 -55.002  15.544  1.00  0.00     0.018 A 
HETATM    9  C   UNL     1     -42.981 -55.081  14.897  1.00  0.00     0.023 A 
HETATM   10  C   UNL     1     -43.462 -54.059  14.165  1.00  0.00     0.115 A 
HETATM   11  C   UNL     1     -42.676 -52.802  14.064  1.00  0.00     0.263 A 
HETATM   12  O   UNL     1     -43.056 -51.855  13.387  1.00  0.00    -0.267 OA
BRANCH  10  13
HETATM   13  C   UNL     1     -44.757 -54.129  13.445  1.00  0.00     0.422 C 
HETATM   14  F   UNL     1     -45.407 -55.316  13.471  1.00  0.00    -0.166 F 
HETATM   15  F   UNL     1     -45.633 -53.211  13.947  1.00  0.00    -0.166 F 
HETATM   16  F   UNL     1     -44.599 -53.806  12.131  1.00  0.00    -0.166 F 
ENDBRANCH  10  13
ENDBRANCH   5   6
ENDBRANCH   2   5
BRANCH   1  17
HETATM   17  C   UNL     1     -41.109 -48.854  13.288  1.00  0.00     0.087 C 
HETATM   18  C   UNL     1     -42.329 -48.433  12.453  1.00  0.00     0.045 C 
HETATM   19  C   UNL     1     -41.933 -47.849  11.107  1.00  0.00     0.127 C 
HETATM   20  N   UNL     1     -40.991 -46.753  11.276  1.00  0.00    -0.352 N 
HETATM   21  C   UNL     1     -41.091 -45.671  10.409  1.00  0.00     0.215 C 
HETATM   22  C   UNL     1     -39.795 -47.061  12.059  1.00  0.00     0.127 C 
HETATM   23  C   UNL     1     -40.105 -44.552  10.609  1.00  0.00     0.117 C 
HETATM   24  O   UNL     1     -41.957 -45.589   9.538  1.00  0.00    -0.274 OA
HETATM   25  C   UNL     1     -40.143 -47.671  13.413  1.00  0.00     0.045 C 
ENDBRANCH   1  17
TORSDOF 4
ENDMDL
MODEL 6
REMARK VINA RESULT:      -6.1      4.013      4.907
REMARK  4 active torsions:
REMARK  status: ('A' for Active; 'I' for Inactive)
REMARK       I    between atoms: C_2  and  N_4 
REMARK    1  A    between atoms: C_7  and  N_10 
REMARK       I    between atoms: N_10  and  C_11 
REMARK    2  A    between atoms: C_11  and  C_13 
REMARK    3  A    between atoms: C_13  and  N_14 
REMARK    4  A    between atoms: C_18  and  C_21 
ROOT
HETATM    1  N   UNL     1     -40.574 -47.608  12.712  1.00  0.00    -0.355 N 
HETATM    2  C   UNL     1     -40.206 -48.599  13.574  1.00  0.00     0.236 C 
HETATM    3  O   UNL     1     -40.546 -48.495  14.754  1.00  0.00    -0.272 OA
HETATM    4  H   UNL     1     -41.173 -46.924  13.167  1.00  0.00     0.162 HD
ENDROOT
BRANCH   2   5
HETATM    5  C   UNL     1     -39.273 -49.706  13.094  1.00  0.00     0.234 C 
BRANCH   5   6
HETATM    6  N   UNL     1     -39.877 -51.043  13.114  1.00  0.00    -0.315 N 
HETATM    7  C   UNL     1     -40.778 -51.445  12.141  1.00  0.00     0.095 A 
HETATM    8  C   UNL     1     -41.281 -52.684  12.132  1.00  0.00     0.018 A 
HETATM    9  C   UNL     1     -40.885 -53.616  13.148  1.00  0.00     0.023 A 
HETATM   10  C   UNL     1     -40.065 -53.254  14.153  1.00  0.00     0.115 A 
HETATM   11  C   UNL     1     -39.518 -51.873  14.183  1.00  0.00     0.263 A 
HETATM   12  O   UNL     1     -38.793 -51.486  15.091  1.00  0.00    -0.267 OA
BRANCH  10  13
HETATM   13  C   UNL     1     -39.678 -54.181  15.244  1.00  0.00     0.422 C 
HETATM   14  F   UNL     1     -39.740 -53.698  16.506  1.00  0.00    -0.166 F 
HETATM   15  F   UNL     1     -40.469 -55.293  15.228  1.00  0.00    -0.166 F 
HETATM   16  F   UNL     1     -38.406 -54.634  15.067  1.00  0.00    -0.166 F 
ENDBRANCH  10  13
ENDBRANCH   5   6
ENDBRANCH   2   5
BRANCH   1  17
HETATM   17  C   UNL     1     -40.425 -47.560  11.259  1.00  0.00     0.087 C 
HETATM   18  C   UNL     1     -40.362 -46.135  10.687  1.00  0.00     0.045 C 
HETATM   19  C   UNL     1     -41.700 -45.418  10.772  1.00  0.00     0.127 C 
HETATM   20  N   UNL     1     -42.749 -46.207  10.143  1.00  0.00    -0.352 N 
HETATM   21  C   UNL     1     -43.745 -45.528   9.451  1.00  0.00     0.215 C 
HETATM   22  C   UNL     1     -42.885 -47.580  10.628  1.00  0.00     0.127 C 
HETATM   23  C   UNL     1     -44.815 -46.369   8.810  1.00  0.00     0.117 C 
HETATM   24  O   UNL     1     -43.754 -44.304   9.319  1.00  0.00    -0.274 OA
HETATM   25  C   UNL     1     -41.560 -48.334  10.580  1.00  0.00     0.045 C 
ENDBRANCH   1  17
TORSDOF 4
ENDMDL
MODEL 7
REMARK VINA RESULT:      -6.1      3.015      7.344
REMARK  4 active torsions:
REMARK  status: ('A' for Active; 'I' for Inactive)
REMARK       I    between atoms: C_2  and  N_4 
REMARK    1  A    between atoms: C_7  and  N_10 
REMARK       I    between atoms: N_10  and  C_11 
REMARK    2  A    between atoms: C_11  and  C_13 
REMARK    3  A    between atoms: C_13  and  N_14 
REMARK    4  A    between atoms: C_18  and  C_21 
ROOT
HETATM    1  N   UNL     1     -41.585 -50.976  12.766  1.00  0.00    -0.355 N 
HETATM    2  C   UNL     1     -41.042 -49.905  12.118  1.00  0.00     0.236 C 
HETATM    3  O   UNL     1     -40.310 -50.124  11.151  1.00  0.00    -0.272 OA
HETATM    4  H   UNL     1     -41.361 -51.848  12.293  1.00  0.00     0.162 HD
ENDROOT
BRANCH   2   5
HETATM    5  C   UNL     1     -41.231 -48.505  12.691  1.00  0.00     0.234 C 
BRANCH   5   6
HETATM    6  N   UNL     1     -41.636 -47.504  11.697  1.00  0.00    -0.315 N 
HETATM    7  C   UNL     1     -40.845 -46.401  11.418  1.00  0.00     0.095 A 
HETATM    8  C   UNL     1     -41.190 -45.523  10.470  1.00  0.00     0.018 A 
HETATM    9  C   UNL     1     -42.403 -45.721   9.730  1.00  0.00     0.023 A 
HETATM   10  C   UNL     1     -43.238 -46.739  10.009  1.00  0.00     0.115 A 
HETATM   11  C   UNL     1     -42.874 -47.708  11.075  1.00  0.00     0.263 A 
HETATM   12  O   UNL     1     -43.613 -48.632  11.387  1.00  0.00    -0.267 OA
BRANCH  10  13
HETATM   13  C   UNL     1     -44.523 -46.940   9.294  1.00  0.00     0.422 C 
HETATM   14  F   UNL     1     -45.604 -47.236  10.052  1.00  0.00    -0.166 F 
HETATM   15  F   UNL     1     -44.854 -45.821   8.587  1.00  0.00    -0.166 F 
HETATM   16  F   UNL     1     -44.413 -47.938   8.373  1.00  0.00    -0.166 F 
ENDBRANCH  10  13
ENDBRANCH   5   6
ENDBRANCH   2   5
BRANCH   1  17
HETATM   17  C   UNL     1     -42.584 -50.988  13.832  1.00  0.00     0.087 C 
HETATM   18  C   UNL     1     -42.223 -51.902  15.014  1.00  0.00     0.045 C 
HETATM   19  C   UNL     1     -42.305 -53.375  14.650  1.00  0.00     0.127 C 
HETATM   20  N   UNL     1     -43.612 -53.698  14.096  1.00  0.00    -0.352 N 
HETATM   21  C   UNL     1     -44.160 -54.939  14.406  1.00  0.00     0.215 C 
HETATM   22  C   UNL     1     -44.040 -52.879  12.965  1.00  0.00     0.127 C 
HETATM   23  C   UNL     1     -45.512 -55.243  13.821  1.00  0.00     0.117 C 
HETATM   24  O   UNL     1     -43.606 -55.749  15.149  1.00  0.00    -0.274 OA
HETATM   25  C   UNL     1     -43.955 -51.388  13.277  1.00  0.00     0.045 C 
ENDBRANCH   1  17
TORSDOF 4
ENDMDL
MODEL 8
REMARK VINA RESULT:      -6.0      2.296      2.737
REMARK  4 active torsions:
REMARK  status: ('A' for Active; 'I' for Inactive)
REMARK       I    between atoms: C_2  and  N_4 
REMARK    1  A    between atoms: C_7  and  N_10 
REMARK       I    between atoms: N_10  and  C_11 
REMARK    2  A    between atoms: C_11  and  C_13 
REMARK    3  A    between atoms: C_13  and  N_14 
REMARK    4  A    between atoms: C_18  and  C_21 
ROOT
HETATM    1  N   UNL     1     -39.927 -51.489  13.500  1.00  0.00    -0.355 N 
HETATM    2  C   UNL     1     -39.847 -52.849  13.418  1.00  0.00     0.236 C 
HETATM    3  O   UNL     1     -38.757 -53.380  13.641  1.00  0.00    -0.272 OA
HETATM    4  H   UNL     1     -39.051 -51.086  13.823  1.00  0.00     0.162 HD
ENDROOT
BRANCH   2   5
HETATM    5  C   UNL     1     -41.049 -53.643  12.916  1.00  0.00     0.234 C 
BRANCH   5   6
HETATM    6  N   UNL     1     -41.985 -54.041  13.974  1.00  0.00    -0.315 N 
HETATM    7  C   UNL     1     -41.549 -54.307  15.262  1.00  0.00     0.095 A 
HETATM    8  C   UNL     1     -42.412 -54.613  16.236  1.00  0.00     0.018 A 
HETATM    9  C   UNL     1     -43.816 -54.671  15.945  1.00  0.00     0.023 A 
HETATM   10  C   UNL     1     -44.283 -54.487  14.696  1.00  0.00     0.115 A 
HETATM   11  C   UNL     1     -43.329 -54.167  13.602  1.00  0.00     0.263 A 
HETATM   12  O   UNL     1     -43.700 -54.019  12.445  1.00  0.00    -0.267 OA
BRANCH  10  13
HETATM   13  C   UNL     1     -45.723 -54.589  14.356  1.00  0.00     0.422 C 
HETATM   14  F   UNL     1     -46.246 -53.592  13.606  1.00  0.00    -0.166 F 
HETATM   15  F   UNL     1     -45.970 -55.743  13.672  1.00  0.00    -0.166 F 
HETATM   16  F   UNL     1     -46.483 -54.661  15.484  1.00  0.00    -0.166 F 
ENDBRANCH  10  13
ENDBRANCH   5   6
ENDBRANCH   2   5
BRANCH   1  17
HETATM   17  C   UNL     1     -41.111 -50.638  13.426  1.00  0.00     0.087 C 
HETATM   18  C   UNL     1     -41.416 -50.117  12.013  1.00  0.00     0.045 C 
HETATM   19  C   UNL     1     -40.402 -49.086  11.546  1.00  0.00     0.127 C 
HETATM   20  N   UNL     1     -40.288 -48.000  12.509  1.00  0.00    -0.352 N 
HETATM   21  C   UNL     1     -40.086 -46.715  12.018  1.00  0.00     0.215 C 
HETATM   22  C   UNL     1     -39.997 -48.402  13.884  1.00  0.00     0.127 C 
HETATM   23  C   UNL     1     -39.974 -45.613  13.036  1.00  0.00     0.117 C 
HETATM   24  O   UNL     1     -40.036 -46.458  10.815  1.00  0.00    -0.274 OA
HETATM   25  C   UNL     1     -40.979 -49.453  14.390  1.00  0.00     0.045 C 
ENDBRANCH   1  17
TORSDOF 4
ENDMDL
MODEL 9
REMARK VINA RESULT:      -5.9      4.245      7.930
REMARK  4 active torsions:
REMARK  status: ('A' for Active; 'I' for Inactive)
REMARK       I    between atoms: C_2  and  N_4 
REMARK    1  A    between atoms: C_7  and  N_10 
REMARK       I    between atoms: N_10  and  C_11 
REMARK    2  A    between atoms: C_11  and  C_13 
REMARK    3  A    between atoms: C_13  and  N_14 
REMARK    4  A    between atoms: C_18  and  C_21 
ROOT
HETATM    1  N   UNL     1     -42.526 -49.194  11.426  1.00  0.00    -0.355 N 
HETATM    2  C   UNL     1     -42.415 -48.017  10.746  1.00  0.00     0.236 C 
HETATM    3  O   UNL     1     -43.104 -47.864   9.736  1.00  0.00    -0.272 OA
HETATM    4  H   UNL     1     -43.253 -49.784  11.029  1.00  0.00     0.162 HD
ENDROOT
BRANCH   2   5
HETATM    5  C   UNL     1     -41.351 -47.006  11.162  1.00  0.00     0.234 C 
BRANCH   5   6
HETATM    6  N   UNL     1     -41.870 -45.891  11.964  1.00  0.00    -0.315 N 
HETATM    7  C   UNL     1     -42.020 -45.998  13.337  1.00  0.00     0.095 A 
HETATM    8  C   UNL     1     -42.438 -44.960  14.071  1.00  0.00     0.018 A 
HETATM    9  C   UNL     1     -42.742 -43.715  13.426  1.00  0.00     0.023 A 
HETATM   10  C   UNL     1     -42.677 -43.582  12.088  1.00  0.00     0.115 A 
HETATM   11  C   UNL     1     -42.233 -44.735  11.263  1.00  0.00     0.263 A 
HETATM   12  O   UNL     1     -42.185 -44.674  10.041  1.00  0.00    -0.267 OA
BRANCH  10  13
HETATM   13  C   UNL     1     -43.032 -42.322  11.391  1.00  0.00     0.422 C 
HETATM   14  F   UNL     1     -42.065 -41.745  10.641  1.00  0.00    -0.166 F 
HETATM   15  F   UNL     1     -44.089 -42.523  10.551  1.00  0.00    -0.166 F 
HETATM   16  F   UNL     1     -43.444 -41.376  12.280  1.00  0.00    -0.166 F 
ENDBRANCH  10  13
ENDBRANCH   5   6
ENDBRANCH   2   5
BRANCH   1  17
HETATM   17  C   UNL     1     -41.939 -49.566  12.711  1.00  0.00     0.087 C 
HETATM   18  C   UNL     1     -40.691 -50.456  12.592  1.00  0.00     0.045 C 
HETATM   19  C   UNL     1     -41.027 -51.859  12.116  1.00  0.00     0.127 C 
HETATM   20  N   UNL     1     -42.043 -52.464  12.964  1.00  0.00    -0.352 N 
HETATM   21  C   UNL     1     -41.948 -53.827  13.220  1.00  0.00     0.215 C 
HETATM   22  C   UNL     1     -43.269 -51.687  13.134  1.00  0.00     0.127 C 
HETATM   23  C   UNL     1     -43.012 -54.424  14.102  1.00  0.00     0.117 C 
HETATM   24  O   UNL     1     -41.030 -54.527  12.792  1.00  0.00    -0.274 OA
HETATM   25  C   UNL     1     -42.981 -50.261  13.593  1.00  0.00     0.045 C 
ENDBRANCH   1  17
TORSDOF 4
ENDMDL
