MODEL 1
REMARK VINA RESULT:      -7.1      0.000      0.000
REMARK  9 active torsions:
REMARK  status: ('A' for Active; 'I' for Inactive)
REMARK    1  A    between atoms: N_3  and  C_12 
REMARK    2  A    between atoms: C_5  and  N_11 
REMARK    3  A    between atoms: C_12  and  C_22 
REMARK    4  A    between atoms: C_17  and  C_18 
REMARK    5  A    between atoms: C_17  and  C_31 
REMARK    6  A    between atoms: C_22  and  C_27 
REMARK    7  A    between atoms: C_22  and  O_30 
REMARK    8  A    between atoms: O_25  and  C_27 
REMARK    9  A    between atoms: O_25  and  C_26 
ROOT
HETATM    1  C   UNL     1     -41.471 -45.829  12.278  1.00  0.00     0.149 A 
HETATM    2  C   UNL     1     -41.763 -44.841  11.365  1.00  0.00     0.149 A 
HETATM    3  N   UNL     1     -42.060 -46.988  11.770  1.00  0.00    -0.295 N 
HETATM    4  N   UNL     1     -40.701 -45.521  13.398  1.00  0.00    -0.287 N 
HETATM    5  C   UNL     1     -42.753 -46.581  10.639  1.00  0.00     0.254 A 
HETATM    6  C   UNL     1     -40.294 -44.145  13.627  1.00  0.00     0.332 A 
HETATM    7  N   UNL     1     -40.607 -43.211  12.662  1.00  0.00    -0.269 N 
HETATM    8  N   UNL     1     -42.560 -45.306  10.360  1.00  0.00    -0.315 N 
ATOM      9  HN  UNL     1     -42.927 -44.782   9.566  1.00  0.00     0.169 HD
HETATM   10  C   UNL     1     -41.271 -43.487  11.479  1.00  0.00     0.281 A 
HETATM   11  O   UNL     1     -39.686 -43.897  14.663  1.00  0.00    -0.246 OA
HETATM   12  O   UNL     1     -41.428 -42.662  10.585  1.00  0.00    -0.265 OA
HETATM   13  C   UNL     1     -40.337 -46.434  14.490  1.00  0.00     0.163 C 
HETATM   14  C   UNL     1     -40.177 -41.848  12.911  1.00  0.00     0.164 C 
ENDROOT
BRANCH   3  15
HETATM   15  C   UNL     1     -41.787 -48.364  12.174  1.00  0.00     0.168 C 
BRANCH  15  16
HETATM   16  C   UNL     1     -40.515 -49.012  11.584  1.00  0.00     0.161 C 
BRANCH  16  17
HETATM   17  C   UNL     1     -40.011 -50.198  12.452  1.00  0.00     0.209 C 
BRANCH  17  18
HETATM   18  O   UNL     1     -40.355 -51.416  11.773  1.00  0.00    -0.349 OA
BRANCH  18  19
HETATM   19  C   UNL     1     -41.295 -52.226  12.348  1.00  0.00     0.068 A 
HETATM   20  C   UNL     1     -42.670 -52.003  12.364  1.00  0.00     0.037 A 
HETATM   21  C   UNL     1     -43.521 -52.923  13.005  1.00  0.00     0.018 A 
HETATM   22  C   UNL     1     -43.001 -54.059  13.641  1.00  0.00     0.010 A 
HETATM   23  C   UNL     1     -41.626 -54.300  13.587  1.00  0.00     0.018 A 
HETATM   24  C   UNL     1     -40.786 -53.390  12.934  1.00  0.00     0.037 A 
BRANCH  22  25
HETATM   25  C   UNL     1     -43.935 -54.984  14.346  1.00  0.00     0.159 C 
HETATM   26  O   UNL     1     -43.526 -55.609  15.322  1.00  0.00    -0.292 OA
BRANCH  25  27
HETATM   27  C   UNL     1     -45.358 -55.121  13.825  1.00  0.00     0.079 C 
HETATM   28  C   UNL     1     -46.370 -54.511  14.782  1.00  0.00     0.013 C 
ENDBRANCH  25  27
ENDBRANCH  22  25
ENDBRANCH  18  19
ENDBRANCH  17  18
ENDBRANCH  16  17
BRANCH  16  29
HETATM   29  O   UNL     1     -40.787 -49.477  10.251  1.00  0.00    -0.392 OA
HETATM   30  H   UNL     1     -40.026 -50.016   9.957  1.00  0.00     0.210 HD
ENDBRANCH  16  29
ENDBRANCH  15  16
ENDBRANCH   3  15
BRANCH   5  31
HETATM   31  N   UNL     1     -43.572 -47.406   9.781  1.00  0.00    -0.079 N 
HETATM   32  O   UNL     1     -44.760 -47.537  10.093  1.00  0.00    -0.529 OA
HETATM   33  O   UNL     1     -43.032 -47.913   8.789  1.00  0.00    -0.529 OA
ENDBRANCH   5  31
TORSDOF 9
ENDMDL
MODEL 2
REMARK VINA RESULT:      -7.0      1.936      2.311
REMARK  9 active torsions:
REMARK  status: ('A' for Active; 'I' for Inactive)
REMARK    1  A    between atoms: N_3  and  C_12 
REMARK    2  A    between atoms: C_5  and  N_11 
REMARK    3  A    between atoms: C_12  and  C_22 
REMARK    4  A    between atoms: C_17  and  C_18 
REMARK    5  A    between atoms: C_17  and  C_31 
REMARK    6  A    between atoms: C_22  and  C_27 
REMARK    7  A    between atoms: C_22  and  O_30 
REMARK    8  A    between atoms: O_25  and  C_27 
REMARK    9  A    between atoms: O_25  and  C_26 
ROOT
HETATM    1  C   UNL     1     -41.249 -44.836  12.334  1.00  0.00     0.149 A 
HETATM    2  C   UNL     1     -42.367 -44.058  12.135  1.00  0.00     0.149 A 
HETATM    3  N   UNL     1     -41.291 -45.806  11.331  1.00  0.00    -0.295 N 
HETATM    4  N   UNL     1     -40.371 -44.522  13.370  1.00  0.00    -0.287 N 
HETATM    5  C   UNL     1     -42.493 -45.596  10.669  1.00  0.00     0.254 A 
HETATM    6  C   UNL     1     -40.695 -43.433  14.274  1.00  0.00     0.332 A 
HETATM    7  N   UNL     1     -41.821 -42.685  14.005  1.00  0.00    -0.269 N 
HETATM    8  N   UNL     1     -43.135 -44.534  11.113  1.00  0.00    -0.315 N 
ATOM      9  HN  UNL     1     -44.014 -44.151  10.768  1.00  0.00     0.169 HD
HETATM   10  C   UNL     1     -42.665 -42.884  12.925  1.00  0.00     0.281 A 
HETATM   11  O   UNL     1     -39.940 -43.236  15.221  1.00  0.00    -0.246 OA
HETATM   12  O   UNL     1     -43.589 -42.129  12.642  1.00  0.00    -0.265 OA
HETATM   13  C   UNL     1     -39.164 -45.268  13.752  1.00  0.00     0.163 C 
HETATM   14  C   UNL     1     -42.113 -41.595  14.917  1.00  0.00     0.164 C 
ENDROOT
BRANCH   3  15
HETATM   15  C   UNL     1     -40.198 -46.669  10.895  1.00  0.00     0.168 C 
BRANCH  15  16
HETATM   16  C   UNL     1     -40.272 -48.147  11.337  1.00  0.00     0.161 C 
BRANCH  16  17
HETATM   17  C   UNL     1     -40.996 -48.309  12.703  1.00  0.00     0.209 C 
BRANCH  17  18
HETATM   18  O   UNL     1     -40.813 -49.667  13.137  1.00  0.00    -0.349 OA
BRANCH  18  19
HETATM   19  C   UNL     1     -41.880 -50.518  13.042  1.00  0.00     0.068 A 
HETATM   20  C   UNL     1     -41.858 -51.804  12.509  1.00  0.00     0.037 A 
HETATM   21  C   UNL     1     -43.041 -52.566  12.469  1.00  0.00     0.018 A 
HETATM   22  C   UNL     1     -44.250 -52.041  12.948  1.00  0.00     0.010 A 
HETATM   23  C   UNL     1     -44.259 -50.766  13.519  1.00  0.00     0.018 A 
HETATM   24  C   UNL     1     -43.076 -50.019  13.571  1.00  0.00     0.037 A 
BRANCH  22  25
HETATM   25  C   UNL     1     -45.488 -52.866  12.845  1.00  0.00     0.159 C 
HETATM   26  O   UNL     1     -45.386 -54.091  12.835  1.00  0.00    -0.292 OA
BRANCH  25  27
HETATM   27  C   UNL     1     -46.831 -52.156  12.752  1.00  0.00     0.079 C 
HETATM   28  C   UNL     1     -47.130 -51.699  11.332  1.00  0.00     0.013 C 
ENDBRANCH  25  27
ENDBRANCH  22  25
ENDBRANCH  18  19
ENDBRANCH  17  18
ENDBRANCH  16  17
BRANCH  16  29
HETATM   29  O   UNL     1     -40.964 -48.913  10.336  1.00  0.00    -0.392 OA
HETATM   30  H   UNL     1     -41.901 -48.991  10.608  1.00  0.00     0.210 HD
ENDBRANCH  16  29
ENDBRANCH  15  16
ENDBRANCH   3  15
BRANCH   5  31
HETATM   31  N   UNL     1     -43.026 -46.375   9.575  1.00  0.00    -0.079 N 
HETATM   32  O   UNL     1     -43.409 -47.521   9.834  1.00  0.00    -0.529 OA
HETATM   33  O   UNL     1     -43.074 -45.839   8.460  1.00  0.00    -0.529 OA
ENDBRANCH   5  31
TORSDOF 9
ENDMDL
MODEL 3
REMARK VINA RESULT:      -6.9      3.239      5.252
REMARK  9 active torsions:
REMARK  status: ('A' for Active; 'I' for Inactive)
REMARK    1  A    between atoms: N_3  and  C_12 
REMARK    2  A    between atoms: C_5  and  N_11 
REMARK    3  A    between atoms: C_12  and  C_22 
REMARK    4  A    between atoms: C_17  and  C_18 
REMARK    5  A    between atoms: C_17  and  C_31 
REMARK    6  A    between atoms: C_22  and  C_27 
REMARK    7  A    between atoms: C_22  and  O_30 
REMARK    8  A    between atoms: O_25  and  C_27 
REMARK    9  A    between atoms: O_25  and  C_26 
ROOT
HETATM    1  C   UNL     1     -38.338 -48.411  13.676  1.00  0.00     0.149 A 
HETATM    2  C   UNL     1     -38.246 -47.262  14.429  1.00  0.00     0.149 A 
HETATM    3  N   UNL     1     -37.553 -49.354  14.342  1.00  0.00    -0.295 N 
HETATM    4  N   UNL     1     -39.136 -48.418  12.533  1.00  0.00    -0.287 N 
HETATM    5  C   UNL     1     -36.962 -48.663  15.391  1.00  0.00     0.254 A 
HETATM    6  C   UNL     1     -39.786 -47.190  12.109  1.00  0.00     0.332 A 
HETATM    7  N   UNL     1     -39.663 -46.082  12.921  1.00  0.00    -0.269 N 
HETATM    8  N   UNL     1     -37.391 -47.419  15.481  1.00  0.00    -0.315 N 
ATOM      9  HN  UNL     1     -37.138 -46.725  16.184  1.00  0.00     0.169 HD
HETATM   10  C   UNL     1     -38.976 -46.054  14.123  1.00  0.00     0.281 A 
HETATM   11  O   UNL     1     -40.414 -47.213  11.056  1.00  0.00    -0.246 OA
HETATM   12  O   UNL     1     -38.987 -45.091  14.883  1.00  0.00    -0.265 OA
HETATM   13  C   UNL     1     -39.310 -49.533  11.593  1.00  0.00     0.163 C 
HETATM   14  C   UNL     1     -40.333 -44.873  12.480  1.00  0.00     0.164 C 
ENDROOT
BRANCH   3  15
HETATM   15  C   UNL     1     -37.563 -50.800  14.150  1.00  0.00     0.168 C 
BRANCH  15  16
HETATM   16  C   UNL     1     -38.766 -51.563  14.746  1.00  0.00     0.161 C 
BRANCH  16  17
HETATM   17  C   UNL     1     -38.826 -53.034  14.249  1.00  0.00     0.209 C 
BRANCH  17  18
HETATM   18  O   UNL     1     -39.594 -53.055  13.035  1.00  0.00    -0.349 OA
BRANCH  18  19
HETATM   19  C   UNL     1     -40.943 -53.260  13.135  1.00  0.00     0.068 A 
HETATM   20  C   UNL     1     -41.575 -54.156  13.994  1.00  0.00     0.037 A 
HETATM   21  C   UNL     1     -42.978 -54.267  13.981  1.00  0.00     0.018 A 
HETATM   22  C   UNL     1     -43.751 -53.495  13.103  1.00  0.00     0.010 A 
HETATM   23  C   UNL     1     -43.117 -52.569  12.272  1.00  0.00     0.018 A 
HETATM   24  C   UNL     1     -41.722 -52.450  12.300  1.00  0.00     0.037 A 
BRANCH  22  25
HETATM   25  C   UNL     1     -45.232 -53.677  13.092  1.00  0.00     0.159 C 
HETATM   26  O   UNL     1     -45.695 -54.784  13.357  1.00  0.00    -0.292 OA
BRANCH  25  27
HETATM   27  C   UNL     1     -46.111 -52.484  12.748  1.00  0.00     0.079 C 
HETATM   28  C   UNL     1     -46.342 -51.587  13.955  1.00  0.00     0.013 C 
ENDBRANCH  25  27
ENDBRANCH  22  25
ENDBRANCH  18  19
ENDBRANCH  17  18
ENDBRANCH  16  17
BRANCH  16  29
HETATM   29  O   UNL     1     -38.680 -51.547  16.182  1.00  0.00    -0.392 OA
HETATM   30  H   UNL     1     -38.766 -50.619  16.480  1.00  0.00     0.210 HD
ENDBRANCH  16  29
ENDBRANCH  15  16
ENDBRANCH   3  15
BRANCH   5  31
HETATM   31  N   UNL     1     -36.018 -49.188  16.350  1.00  0.00    -0.079 N 
HETATM   32  O   UNL     1     -34.859 -48.765  16.288  1.00  0.00    -0.529 OA
HETATM   33  O   UNL     1     -36.436 -50.013  17.173  1.00  0.00    -0.529 OA
ENDBRANCH   5  31
TORSDOF 9
ENDMDL
MODEL 4
REMARK VINA RESULT:      -6.8      2.571      4.695
REMARK  9 active torsions:
REMARK  status: ('A' for Active; 'I' for Inactive)
REMARK    1  A    between atoms: N_3  and  C_12 
REMARK    2  A    between atoms: C_5  and  N_11 
REMARK    3  A    between atoms: C_12  and  C_22 
REMARK    4  A    between atoms: C_17  and  C_18 
REMARK    5  A    between atoms: C_17  and  C_31 
REMARK    6  A    between atoms: C_22  and  C_27 
REMARK    7  A    between atoms: C_22  and  O_30 
REMARK    8  A    between atoms: O_25  and  C_27 
REMARK    9  A    between atoms: O_25  and  C_26 
ROOT
HETATM    1  C   UNL     1     -40.894 -49.360  12.068  1.00  0.00     0.149 A 
HETATM    2  C   UNL     1     -40.043 -48.404  11.560  1.00  0.00     0.149 A 
HETATM    3  N   UNL     1     -40.064 -50.371  12.556  1.00  0.00    -0.295 N 
HETATM    4  N   UNL     1     -42.270 -49.144  12.027  1.00  0.00    -0.287 N 
HETATM    5  C   UNL     1     -38.777 -49.989  12.206  1.00  0.00     0.254 A 
HETATM    6  C   UNL     1     -42.786 -47.954  11.372  1.00  0.00     0.332 A 
HETATM    7  N   UNL     1     -41.876 -47.032  10.901  1.00  0.00    -0.269 N 
HETATM    8  N   UNL     1     -38.740 -48.799  11.639  1.00  0.00    -0.315 N 
ATOM      9  HN  UNL     1     -37.916 -48.285  11.328  1.00  0.00     0.169 HD
HETATM   10  C   UNL     1     -40.501 -47.146  11.017  1.00  0.00     0.281 A 
HETATM   11  O   UNL     1     -44.003 -47.836  11.285  1.00  0.00    -0.246 OA
HETATM   12  O   UNL     1     -39.721 -46.254  10.699  1.00  0.00    -0.265 OA
HETATM   13  C   UNL     1     -43.317 -50.071  12.477  1.00  0.00     0.163 C 
HETATM   14  C   UNL     1     -42.419 -45.847  10.263  1.00  0.00     0.164 C 
ENDROOT
BRANCH   3  15
HETATM   15  C   UNL     1     -40.433 -51.448  13.469  1.00  0.00     0.168 C 
BRANCH  15  16
HETATM   16  C   UNL     1     -40.047 -52.879  13.034  1.00  0.00     0.161 C 
BRANCH  16  17
HETATM   17  C   UNL     1     -40.667 -53.957  13.966  1.00  0.00     0.209 C 
BRANCH  17  18
HETATM   18  O   UNL     1     -41.770 -54.558  13.268  1.00  0.00    -0.349 OA
BRANCH  18  19
HETATM   19  C   UNL     1     -43.032 -54.132  13.577  1.00  0.00     0.068 A 
HETATM   20  C   UNL     1     -44.027 -53.787  12.666  1.00  0.00     0.037 A 
HETATM   21  C   UNL     1     -45.284 -53.354  13.131  1.00  0.00     0.018 A 
HETATM   22  C   UNL     1     -45.544 -53.254  14.505  1.00  0.00     0.010 A 
HETATM   23  C   UNL     1     -44.557 -53.640  15.415  1.00  0.00     0.018 A 
HETATM   24  C   UNL     1     -43.315 -54.085  14.947  1.00  0.00     0.037 A 
BRANCH  22  25
HETATM   25  C   UNL     1     -46.874 -52.749  14.954  1.00  0.00     0.159 C 
HETATM   26  O   UNL     1     -47.852 -53.488  14.860  1.00  0.00    -0.292 OA
BRANCH  25  27
HETATM   27  C   UNL     1     -46.968 -51.335  15.508  1.00  0.00     0.079 C 
HETATM   28  C   UNL     1     -47.846 -51.273  16.749  1.00  0.00     0.013 C 
ENDBRANCH  25  27
ENDBRANCH  22  25
ENDBRANCH  18  19
ENDBRANCH  17  18
ENDBRANCH  16  17
BRANCH  16  29
HETATM   29  O   UNL     1     -40.487 -53.105  11.683  1.00  0.00    -0.392 OA
HETATM   30  H   UNL     1     -40.798 -54.030  11.617  1.00  0.00     0.210 HD
ENDBRANCH  16  29
ENDBRANCH  15  16
ENDBRANCH   3  15
BRANCH   5  31
HETATM   31  N   UNL     1     -37.559 -50.729  12.445  1.00  0.00    -0.079 N 
HETATM   32  O   UNL     1     -37.108 -50.712  13.595  1.00  0.00    -0.529 OA
HETATM   33  O   UNL     1     -37.059 -51.335  11.489  1.00  0.00    -0.529 OA
ENDBRANCH   5  31
TORSDOF 9
ENDMDL
MODEL 5
REMARK VINA RESULT:      -6.8      2.136      3.858
REMARK  9 active torsions:
REMARK  status: ('A' for Active; 'I' for Inactive)
REMARK    1  A    between atoms: N_3  and  C_12 
REMARK    2  A    between atoms: C_5  and  N_11 
REMARK    3  A    between atoms: C_12  and  C_22 
REMARK    4  A    between atoms: C_17  and  C_18 
REMARK    5  A    between atoms: C_17  and  C_31 
REMARK    6  A    between atoms: C_22  and  C_27 
REMARK    7  A    between atoms: C_22  and  O_30 
REMARK    8  A    between atoms: O_25  and  C_27 
REMARK    9  A    between atoms: O_25  and  C_26 
ROOT
HETATM    1  C   UNL     1     -40.046 -47.016  12.624  1.00  0.00     0.149 A 
HETATM    2  C   UNL     1     -39.458 -45.967  13.295  1.00  0.00     0.149 A 
HETATM    3  N   UNL     1     -39.673 -48.162  13.328  1.00  0.00    -0.295 N 
HETATM    4  N   UNL     1     -40.838 -46.756  11.507  1.00  0.00    -0.287 N 
HETATM    5  C   UNL     1     -38.799 -47.718  14.311  1.00  0.00     0.254 A 
HETATM    6  C   UNL     1     -40.960 -45.393  11.020  1.00  0.00     0.332 A 
HETATM    7  N   UNL     1     -40.358 -44.391  11.751  1.00  0.00    -0.269 N 
HETATM    8  N   UNL     1     -38.685 -46.405  14.330  1.00  0.00    -0.315 N 
ATOM      9  HN  UNL     1     -38.137 -45.839  14.977  1.00  0.00     0.169 HD
HETATM   10  C   UNL     1     -39.656 -44.583  12.929  1.00  0.00     0.281 A 
HETATM   11  O   UNL     1     -41.599 -45.212   9.989  1.00  0.00    -0.246 OA
HETATM   12  O   UNL     1     -39.237 -43.662  13.622  1.00  0.00    -0.265 OA
HETATM   13  C   UNL     1     -41.497 -47.751  10.649  1.00  0.00     0.163 C 
HETATM   14  C   UNL     1     -40.507 -43.038  11.249  1.00  0.00     0.164 C 
ENDROOT
BRANCH   3  15
HETATM   15  C   UNL     1     -40.275 -49.488  13.234  1.00  0.00     0.168 C 
BRANCH  15  16
HETATM   16  C   UNL     1     -39.406 -50.592  12.592  1.00  0.00     0.161 C 
BRANCH  16  17
HETATM   17  C   UNL     1     -39.509 -51.936  13.365  1.00  0.00     0.209 C 
BRANCH  17  18
HETATM   18  O   UNL     1     -40.241 -52.859  12.543  1.00  0.00    -0.349 OA
BRANCH  18  19
HETATM   19  C   UNL     1     -41.419 -53.355  13.031  1.00  0.00     0.068 A 
HETATM   20  C   UNL     1     -41.558 -54.227  14.108  1.00  0.00     0.037 A 
HETATM   21  C   UNL     1     -42.839 -54.663  14.495  1.00  0.00     0.018 A 
HETATM   22  C   UNL     1     -43.982 -54.241  13.801  1.00  0.00     0.010 A 
HETATM   23  C   UNL     1     -43.841 -53.335  12.747  1.00  0.00     0.018 A 
HETATM   24  C   UNL     1     -42.566 -52.891  12.377  1.00  0.00     0.037 A 
BRANCH  22  25
HETATM   25  C   UNL     1     -45.315 -54.763  14.217  1.00  0.00     0.159 C 
HETATM   26  O   UNL     1     -45.762 -55.762  13.657  1.00  0.00    -0.292 OA
BRANCH  25  27
HETATM   27  C   UNL     1     -46.073 -54.034  15.317  1.00  0.00     0.079 C 
HETATM   28  C   UNL     1     -46.943 -52.918  14.757  1.00  0.00     0.013 C 
ENDBRANCH  25  27
ENDBRANCH  22  25
ENDBRANCH  18  19
ENDBRANCH  17  18
ENDBRANCH  16  17
BRANCH  16  29
HETATM   29  O   UNL     1     -39.815 -50.792  11.229  1.00  0.00    -0.392 OA
HETATM   30  H   UNL     1     -40.650 -51.302  11.235  1.00  0.00     0.210 HD
ENDBRANCH  16  29
ENDBRANCH  15  16
ENDBRANCH   3  15
BRANCH   5  31
HETATM   31  N   UNL     1     -38.097 -48.532  15.277  1.00  0.00    -0.079 N 
HETATM   32  O   UNL     1     -36.961 -48.911  14.973  1.00  0.00    -0.529 OA
HETATM   33  O   UNL     1     -38.674 -48.783  16.343  1.00  0.00    -0.529 OA
ENDBRANCH   5  31
TORSDOF 9
ENDMDL
MODEL 6
REMARK VINA RESULT:      -6.6      6.102      8.625
REMARK  9 active torsions:
REMARK  status: ('A' for Active; 'I' for Inactive)
REMARK    1  A    between atoms: N_3  and  C_12 
REMARK    2  A    between atoms: C_5  and  N_11 
REMARK    3  A    between atoms: C_12  and  C_22 
REMARK    4  A    between atoms: C_17  and  C_18 
REMARK    5  A    between atoms: C_17  and  C_31 
REMARK    6  A    between atoms: C_22  and  C_27 
REMARK    7  A    between atoms: C_22  and  O_30 
REMARK    8  A    between atoms: O_25  and  C_27 
REMARK    9  A    between atoms: O_25  and  C_26 
ROOT
HETATM    1  C   UNL     1     -42.202 -53.938  13.928  1.00  0.00     0.149 A 
HETATM    2  C   UNL     1     -42.162 -54.534  15.168  1.00  0.00     0.149 A 
HETATM    3  N   UNL     1     -43.531 -54.035  13.513  1.00  0.00    -0.295 N 
HETATM    4  N   UNL     1     -41.038 -53.385  13.396  1.00  0.00    -0.287 N 
HETATM    5  C   UNL     1     -44.167 -54.780  14.496  1.00  0.00     0.254 A 
HETATM    6  C   UNL     1     -39.786 -53.525  14.120  1.00  0.00     0.332 A 
HETATM    7  N   UNL     1     -39.824 -54.119  15.364  1.00  0.00    -0.269 N 
HETATM    8  N   UNL     1     -43.373 -55.059  15.511  1.00  0.00    -0.315 N 
ATOM      9  HN  UNL     1     -43.613 -55.559  16.367  1.00  0.00     0.169 HD
HETATM   10  C   UNL     1     -40.971 -54.583  15.986  1.00  0.00     0.281 A 
HETATM   11  O   UNL     1     -38.769 -53.098  13.586  1.00  0.00    -0.246 OA
HETATM   12  O   UNL     1     -40.993 -54.994  17.141  1.00  0.00    -0.265 OA
HETATM   13  C   UNL     1     -40.890 -52.757  12.077  1.00  0.00     0.163 C 
HETATM   14  C   UNL     1     -38.562 -54.234  16.070  1.00  0.00     0.164 C 
ENDROOT
BRANCH   3  15
HETATM   15  C   UNL     1     -44.173 -53.291  12.435  1.00  0.00     0.168 C 
BRANCH  15  16
HETATM   16  C   UNL     1     -45.538 -52.646  12.763  1.00  0.00     0.161 C 
BRANCH  16  17
HETATM   17  C   UNL     1     -45.380 -51.204  13.321  1.00  0.00     0.209 C 
BRANCH  17  18
HETATM   18  O   UNL     1     -44.918 -51.307  14.677  1.00  0.00    -0.349 OA
BRANCH  18  19
HETATM   19  C   UNL     1     -45.816 -51.061  15.679  1.00  0.00     0.068 A 
HETATM   20  C   UNL     1     -47.159 -51.428  15.685  1.00  0.00     0.037 A 
HETATM   21  C   UNL     1     -47.971 -51.099  16.787  1.00  0.00     0.018 A 
HETATM   22  C   UNL     1     -47.447 -50.392  17.878  1.00  0.00     0.010 A 
HETATM   23  C   UNL     1     -46.090 -50.062  17.887  1.00  0.00     0.018 A 
HETATM   24  C   UNL     1     -45.283 -50.406  16.796  1.00  0.00     0.037 A 
BRANCH  22  25
HETATM   25  C   UNL     1     -48.353 -50.025  19.005  1.00  0.00     0.159 C 
HETATM   26  O   UNL     1     -48.576 -48.837  19.224  1.00  0.00    -0.292 OA
BRANCH  25  27
HETATM   27  C   UNL     1     -48.963 -51.140  19.842  1.00  0.00     0.079 C 
HETATM   28  C   UNL     1     -47.961 -52.251  20.118  1.00  0.00     0.013 C 
ENDBRANCH  25  27
ENDBRANCH  22  25
ENDBRANCH  18  19
ENDBRANCH  17  18
ENDBRANCH  16  17
BRANCH  16  29
HETATM   29  O   UNL     1     -46.351 -52.614  11.578  1.00  0.00    -0.392 OA
HETATM   30  H   UNL     1     -47.281 -52.490  11.853  1.00  0.00     0.210 HD
ENDBRANCH  16  29
ENDBRANCH  15  16
ENDBRANCH   3  15
BRANCH   5  31
HETATM   31  N   UNL     1     -45.550 -55.199  14.506  1.00  0.00    -0.079 N 
HETATM   32  O   UNL     1     -45.883 -56.060  13.686  1.00  0.00    -0.529 OA
HETATM   33  O   UNL     1     -46.300 -54.676  15.340  1.00  0.00    -0.529 OA
ENDBRANCH   5  31
TORSDOF 9
ENDMDL
MODEL 7
REMARK VINA RESULT:      -6.6      2.540      3.857
REMARK  9 active torsions:
REMARK  status: ('A' for Active; 'I' for Inactive)
REMARK    1  A    between atoms: N_3  and  C_12 
REMARK    2  A    between atoms: C_5  and  N_11 
REMARK    3  A    between atoms: C_12  and  C_22 
REMARK    4  A    between atoms: C_17  and  C_18 
REMARK    5  A    between atoms: C_17  and  C_31 
REMARK    6  A    between atoms: C_22  and  C_27 
REMARK    7  A    between atoms: C_22  and  O_30 
REMARK    8  A    between atoms: O_25  and  C_27 
REMARK    9  A    between atoms: O_25  and  C_26 
ROOT
HETATM    1  C   UNL     1     -38.617 -48.170  14.013  1.00  0.00     0.149 A 
HETATM    2  C   UNL     1     -39.046 -46.911  14.366  1.00  0.00     0.149 A 
HETATM    3  N   UNL     1     -38.975 -48.320  12.672  1.00  0.00    -0.295 N 
HETATM    4  N   UNL     1     -37.953 -48.957  14.953  1.00  0.00    -0.287 N 
HETATM    5  C   UNL     1     -39.689 -47.173  12.354  1.00  0.00     0.254 A 
HETATM    6  C   UNL     1     -37.803 -48.468  16.313  1.00  0.00     0.332 A 
HETATM    7  N   UNL     1     -38.242 -47.191  16.592  1.00  0.00    -0.269 N 
HETATM    8  N   UNL     1     -39.714 -46.303  13.344  1.00  0.00    -0.315 N 
ATOM      9  HN  UNL     1     -40.139 -45.376  13.345  1.00  0.00     0.169 HD
HETATM   10  C   UNL     1     -38.805 -46.328  15.667  1.00  0.00     0.281 A 
HETATM   11  O   UNL     1     -37.286 -49.219  17.133  1.00  0.00    -0.246 OA
HETATM   12  O   UNL     1     -39.073 -45.157  15.914  1.00  0.00    -0.265 OA
HETATM   13  C   UNL     1     -37.473 -50.332  14.763  1.00  0.00     0.163 C 
HETATM   14  C   UNL     1     -38.067 -46.725  17.954  1.00  0.00     0.164 C 
ENDROOT
BRANCH   3  15
HETATM   15  C   UNL     1     -38.479 -49.323  11.736  1.00  0.00     0.168 C 
BRANCH  15  16
HETATM   16  C   UNL     1     -39.467 -50.442  11.341  1.00  0.00     0.161 C 
BRANCH  16  17
HETATM   17  C   UNL     1     -40.309 -50.928  12.553  1.00  0.00     0.209 C 
BRANCH  17  18
HETATM   18  O   UNL     1     -40.370 -52.363  12.498  1.00  0.00    -0.349 OA
BRANCH  18  19
HETATM   19  C   UNL     1     -41.496 -52.974  12.977  1.00  0.00     0.068 A 
HETATM   20  C   UNL     1     -41.543 -53.925  13.993  1.00  0.00     0.037 A 
HETATM   21  C   UNL     1     -42.779 -54.478  14.379  1.00  0.00     0.018 A 
HETATM   22  C   UNL     1     -43.967 -54.092  13.743  1.00  0.00     0.010 A 
HETATM   23  C   UNL     1     -43.920 -53.108  12.753  1.00  0.00     0.018 A 
HETATM   24  C   UNL     1     -42.691 -52.550  12.384  1.00  0.00     0.037 A 
BRANCH  22  25
HETATM   25  C   UNL     1     -45.248 -54.736  14.153  1.00  0.00     0.159 C 
HETATM   26  O   UNL     1     -45.611 -55.758  13.573  1.00  0.00    -0.292 OA
BRANCH  25  27
HETATM   27  C   UNL     1     -46.060 -54.099  15.271  1.00  0.00     0.079 C 
HETATM   28  C   UNL     1     -46.890 -52.927  14.767  1.00  0.00     0.013 C 
ENDBRANCH  25  27
ENDBRANCH  22  25
ENDBRANCH  18  19
ENDBRANCH  17  18
ENDBRANCH  16  17
BRANCH  16  29
HETATM   29  O   UNL     1     -40.347 -49.963  10.309  1.00  0.00    -0.392 OA
HETATM   30  H   UNL     1     -41.084 -50.600  10.220  1.00  0.00     0.210 HD
ENDBRANCH  16  29
ENDBRANCH  15  16
ENDBRANCH   3  15
BRANCH   5  31
HETATM   31  N   UNL     1     -40.319 -46.868  11.090  1.00  0.00    -0.079 N 
HETATM   32  O   UNL     1     -41.357 -47.480  10.817  1.00  0.00    -0.529 OA
HETATM   33  O   UNL     1     -39.785 -46.011  10.376  1.00  0.00    -0.529 OA
ENDBRANCH   5  31
TORSDOF 9
ENDMDL
MODEL 8
REMARK VINA RESULT:      -6.4      3.011      4.697
REMARK  9 active torsions:
REMARK  status: ('A' for Active; 'I' for Inactive)
REMARK    1  A    between atoms: N_3  and  C_12 
REMARK    2  A    between atoms: C_5  and  N_11 
REMARK    3  A    between atoms: C_12  and  C_22 
REMARK    4  A    between atoms: C_17  and  C_18 
REMARK    5  A    between atoms: C_17  and  C_31 
REMARK    6  A    between atoms: C_22  and  C_27 
REMARK    7  A    between atoms: C_22  and  O_30 
REMARK    8  A    between atoms: O_25  and  C_27 
REMARK    9  A    between atoms: O_25  and  C_26 
ROOT
HETATM    1  C   UNL     1     -40.327 -48.061  11.651  1.00  0.00     0.149 A 
HETATM    2  C   UNL     1     -39.475 -47.434  12.532  1.00  0.00     0.149 A 
HETATM    3  N   UNL     1     -40.035 -49.422  11.758  1.00  0.00    -0.295 N 
HETATM    4  N   UNL     1     -41.240 -47.300  10.922  1.00  0.00    -0.287 N 
HETATM    5  C   UNL     1     -38.952 -49.496  12.622  1.00  0.00     0.254 A 
HETATM    6  C   UNL     1     -41.216 -45.852  11.039  1.00  0.00     0.332 A 
HETATM    7  N   UNL     1     -40.348 -45.294  11.952  1.00  0.00    -0.269 N 
HETATM    8  N   UNL     1     -38.623 -48.320  13.123  1.00  0.00    -0.315 N 
ATOM      9  HN  UNL     1     -37.891 -48.118  13.803  1.00  0.00     0.169 HD
HETATM   10  C   UNL     1     -39.502 -46.011  12.782  1.00  0.00     0.281 A 
HETATM   11  O   UNL     1     -41.978 -45.212  10.323  1.00  0.00    -0.246 OA
HETATM   12  O   UNL     1     -38.830 -45.495  13.669  1.00  0.00    -0.265 OA
HETATM   13  C   UNL     1     -42.183 -47.796   9.910  1.00  0.00     0.163 C 
HETATM   14  C   UNL     1     -40.355 -43.847  12.058  1.00  0.00     0.164 C 
ENDROOT
BRANCH   3  15
HETATM   15  C   UNL     1     -40.852 -50.537  11.291  1.00  0.00     0.168 C 
BRANCH  15  16
HETATM   16  C   UNL     1     -41.665 -51.290  12.367  1.00  0.00     0.161 C 
BRANCH  16  17
HETATM   17  C   UNL     1     -42.600 -50.336  13.162  1.00  0.00     0.209 C 
BRANCH  17  18
HETATM   18  O   UNL     1     -43.955 -50.651  12.802  1.00  0.00    -0.349 OA
BRANCH  18  19
HETATM   19  C   UNL     1     -44.832 -50.948  13.809  1.00  0.00     0.068 A 
HETATM   20  C   UNL     1     -46.082 -51.544  13.659  1.00  0.00     0.037 A 
HETATM   21  C   UNL     1     -46.884 -51.783  14.790  1.00  0.00     0.018 A 
HETATM   22  C   UNL     1     -46.447 -51.417  16.071  1.00  0.00     0.010 A 
HETATM   23  C   UNL     1     -45.177 -50.857  16.221  1.00  0.00     0.018 A 
HETATM   24  C   UNL     1     -44.375 -50.636  15.095  1.00  0.00     0.037 A 
BRANCH  22  25
HETATM   25  C   UNL     1     -47.348 -51.648  17.236  1.00  0.00     0.159 C 
HETATM   26  O   UNL     1     -48.512 -51.258  17.173  1.00  0.00    -0.292 OA
BRANCH  25  27
HETATM   27  C   UNL     1     -46.788 -52.355  18.462  1.00  0.00     0.079 C 
HETATM   28  C   UNL     1     -46.144 -53.685  18.100  1.00  0.00     0.013 C 
ENDBRANCH  25  27
ENDBRANCH  22  25
ENDBRANCH  18  19
ENDBRANCH  17  18
ENDBRANCH  16  17
BRANCH  16  29
HETATM   29  O   UNL     1     -42.451 -52.318  11.742  1.00  0.00    -0.392 OA
HETATM   30  H   UNL     1     -43.151 -51.885  11.212  1.00  0.00     0.210 HD
ENDBRANCH  16  29
ENDBRANCH  15  16
ENDBRANCH   3  15
BRANCH   5  31
HETATM   31  N   UNL     1     -38.242 -50.690  13.021  1.00  0.00    -0.079 N 
HETATM   32  O   UNL     1     -37.442 -51.166  12.209  1.00  0.00    -0.529 OA
HETATM   33  O   UNL     1     -38.474 -51.144  14.148  1.00  0.00    -0.529 OA
ENDBRANCH   5  31
TORSDOF 9
ENDMDL
MODEL 9
REMARK VINA RESULT:      -6.4      3.907      8.767
REMARK  9 active torsions:
REMARK  status: ('A' for Active; 'I' for Inactive)
REMARK    1  A    between atoms: N_3  and  C_12 
REMARK    2  A    between atoms: C_5  and  N_11 
REMARK    3  A    between atoms: C_12  and  C_22 
REMARK    4  A    between atoms: C_17  and  C_18 
REMARK    5  A    between atoms: C_17  and  C_31 
REMARK    6  A    between atoms: C_22  and  C_27 
REMARK    7  A    between atoms: C_22  and  O_30 
REMARK    8  A    between atoms: O_25  and  C_27 
REMARK    9  A    between atoms: O_25  and  C_26 
ROOT
HETATM    1  C   UNL     1     -42.382 -53.215  14.989  1.00  0.00     0.149 A 
HETATM    2  C   UNL     1     -43.167 -54.345  15.029  1.00  0.00     0.149 A 
HETATM    3  N   UNL     1     -41.120 -53.626  15.422  1.00  0.00    -0.295 N 
HETATM    4  N   UNL     1     -42.932 -52.013  14.544  1.00  0.00    -0.287 N 
HETATM    5  C   UNL     1     -41.275 -54.954  15.790  1.00  0.00     0.254 A 
HETATM    6  C   UNL     1     -44.345 -51.955  14.213  1.00  0.00     0.332 A 
HETATM    7  N   UNL     1     -45.067 -53.129  14.259  1.00  0.00    -0.269 N 
HETATM    8  N   UNL     1     -42.484 -55.413  15.530  1.00  0.00    -0.315 N 
ATOM      9  HN  UNL     1     -42.832 -56.361  15.674  1.00  0.00     0.169 HD
HETATM   10  C   UNL     1     -44.542 -54.369  14.585  1.00  0.00     0.281 A 
HETATM   11  O   UNL     1     -44.812 -50.865  13.902  1.00  0.00    -0.246 OA
HETATM   12  O   UNL     1     -45.179 -55.414  14.500  1.00  0.00    -0.265 OA
HETATM   13  C   UNL     1     -42.257 -50.710  14.483  1.00  0.00     0.163 C 
HETATM   14  C   UNL     1     -46.473 -53.044  13.911  1.00  0.00     0.164 C 
ENDROOT
BRANCH   3  15
HETATM   15  C   UNL     1     -39.859 -52.908  15.265  1.00  0.00     0.168 C 
BRANCH  15  16
HETATM   16  C   UNL     1     -39.303 -52.804  13.828  1.00  0.00     0.161 C 
BRANCH  16  17
HETATM   17  C   UNL     1     -38.391 -51.560  13.646  1.00  0.00     0.209 C 
BRANCH  17  18
HETATM   18  O   UNL     1     -38.466 -51.159  12.268  1.00  0.00    -0.349 OA
BRANCH  18  19
HETATM   19  C   UNL     1     -39.150 -50.012  11.971  1.00  0.00     0.068 A 
HETATM   20  C   UNL     1     -38.746 -48.715  12.275  1.00  0.00     0.037 A 
HETATM   21  C   UNL     1     -39.560 -47.625  11.914  1.00  0.00     0.018 A 
HETATM   22  C   UNL     1     -40.784 -47.829  11.261  1.00  0.00     0.010 A 
HETATM   23  C   UNL     1     -41.166 -49.129  10.922  1.00  0.00     0.018 A 
HETATM   24  C   UNL     1     -40.345 -50.208  11.268  1.00  0.00     0.037 A 
BRANCH  22  25
HETATM   25  C   UNL     1     -41.636 -46.648  10.937  1.00  0.00     0.159 C 
HETATM   26  O   UNL     1     -41.151 -45.523  11.028  1.00  0.00    -0.292 OA
BRANCH  25  27
HETATM   27  C   UNL     1     -43.077 -46.885  10.509  1.00  0.00     0.079 C 
HETATM   28  C   UNL     1     -43.495 -45.943   9.389  1.00  0.00     0.013 C 
ENDBRANCH  25  27
ENDBRANCH  22  25
ENDBRANCH  18  19
ENDBRANCH  17  18
ENDBRANCH  16  17
BRANCH  16  29
HETATM   29  O   UNL     1     -38.557 -53.993  13.515  1.00  0.00    -0.392 OA
HETATM   30  H   UNL     1     -37.614 -53.747  13.437  1.00  0.00     0.210 HD
ENDBRANCH  16  29
ENDBRANCH  15  16
ENDBRANCH   3  15
BRANCH   5  31
HETATM   31  N   UNL     1     -40.264 -55.821  16.352  1.00  0.00    -0.079 N 
HETATM   32  O   UNL     1     -40.514 -56.345  17.442  1.00  0.00    -0.529 OA
HETATM   33  O   UNL     1     -39.225 -55.987  15.699  1.00  0.00    -0.529 OA
ENDBRANCH   5  31
TORSDOF 9
ENDMDL
