MODEL 1
REMARK VINA RESULT:      -6.9      0.000      0.000
REMARK  5 active torsions:
REMARK  status: ('A' for Active; 'I' for Inactive)
REMARK    1  A    between atoms: C_2  and  N_3 
REMARK    2  A    between atoms: N_3  and  C_4 
REMARK    3  A    between atoms: N_3  and  C_6 
REMARK    4  A    between atoms: C_9  and  N_10 
REMARK       I    between atoms: N_10  and  C_11 
REMARK       I    between atoms: C_11  and  N_13 
REMARK    5  A    between atoms: N_13  and  C_14 
ROOT
HETATM    1  N   UNL     1     -41.554 -50.781  11.373  1.00  0.00    -0.308 N 
HETATM    2  C   UNL     1     -42.210 -51.409  12.410  1.00  0.00     0.321 C 
HETATM    3  O   UNL     1     -42.456 -50.911  13.501  1.00  0.00    -0.247 OA
HETATM    4  N   UNL     1     -42.590 -52.694  12.097  1.00  0.00    -0.336 N 
HETATM    5  H   UNL     1     -41.537 -51.252  10.481  1.00  0.00     0.170 HD
HETATM    6  H   UNL     1     -42.614 -52.948  11.122  1.00  0.00     0.164 HD
ENDROOT
BRANCH   1   7
HETATM    7  C   UNL     1     -41.001 -49.477  11.431  1.00  0.00     0.051 A 
HETATM    8  C   UNL     1     -39.974 -49.116  12.291  1.00  0.00     0.034 A 
HETATM    9  C   UNL     1     -39.485 -47.812  12.290  1.00  0.00     0.044 A 
HETATM   10  C   UNL     1     -40.026 -46.867  11.425  1.00  0.00     0.082 A 
HETATM   11  N   UNL     1     -41.017 -47.201  10.566  1.00  0.00    -0.354 N 
HETATM   12  C   UNL     1     -41.475 -48.481  10.584  1.00  0.00     0.119 A 
ATOM     13  HN  UNL     1     -41.408 -46.512   9.923  1.00  0.00     0.166 HD
BRANCH  10  14
HETATM   14  N   UNL     1     -39.496 -45.545  11.463  1.00  0.00    -0.270 NA
BRANCH  14  15
HETATM   15  C   UNL     1     -39.927 -44.804  10.266  1.00  0.00     0.092 C 
HETATM   16  C   UNL     1     -38.818 -44.647   9.239  1.00  0.00     0.021 C 
ENDBRANCH  14  15
BRANCH  14  17
HETATM   17  C   UNL     1     -39.775 -44.941  12.783  1.00  0.00     0.092 C 
HETATM   18  C   UNL     1     -39.419 -43.458  12.798  1.00  0.00     0.021 C 
ENDBRANCH  14  17
ENDBRANCH  10  14
ENDBRANCH   1   7
BRANCH   4  19
HETATM   19  C   UNL     1     -43.450 -53.470  12.985  1.00  0.00     0.121 C 
HETATM   20  C   UNL     1     -42.737 -54.241  14.111  1.00  0.00     0.057 C 
HETATM   21  C   UNL     1     -43.663 -54.124  15.332  1.00  0.00     0.275 C 
HETATM   22  N   UNL     1     -44.918 -53.596  14.790  1.00  0.00     0.095 N 
HETATM   23  C   UNL     1     -45.773 -52.936  15.775  1.00  0.00     0.273 C 
HETATM   24  C   UNL     1     -44.490 -52.646  13.753  1.00  0.00     0.245 C 
HETATM   25  C   UNL     1     -47.020 -52.370  15.079  1.00  0.00     0.030 C 
HETATM   26  C   UNL     1     -46.670 -51.477  13.882  1.00  0.00     0.004 C 
HETATM   27  C   UNL     1     -45.690 -52.180  12.942  1.00  0.00     0.038 C 
ENDBRANCH   4  19
TORSDOF 5
ENDMDL
MODEL 2
REMARK VINA RESULT:      -6.9      1.498      1.991
REMARK  5 active torsions:
REMARK  status: ('A' for Active; 'I' for Inactive)
REMARK    1  A    between atoms: C_2  and  N_3 
REMARK    2  A    between atoms: N_3  and  C_4 
REMARK    3  A    between atoms: N_3  and  C_6 
REMARK    4  A    between atoms: C_9  and  N_10 
REMARK       I    between atoms: N_10  and  C_11 
REMARK       I    between atoms: C_11  and  N_13 
REMARK    5  A    between atoms: N_13  and  C_14 
ROOT
HETATM    1  N   UNL     1     -40.761 -50.601  11.005  1.00  0.00    -0.308 N 
HETATM    2  C   UNL     1     -41.031 -51.456  12.052  1.00  0.00     0.321 C 
HETATM    3  O   UNL     1     -41.324 -51.117  13.191  1.00  0.00    -0.247 OA
HETATM    4  N   UNL     1     -40.947 -52.781  11.689  1.00  0.00    -0.336 N 
HETATM    5  H   UNL     1     -40.668 -51.006  10.086  1.00  0.00     0.170 HD
HETATM    6  H   UNL     1     -40.981 -52.998  10.706  1.00  0.00     0.164 HD
ENDROOT
BRANCH   1   7
HETATM    7  C   UNL     1     -40.718 -49.187  11.101  1.00  0.00     0.051 A 
HETATM    8  C   UNL     1     -39.754 -48.495  11.820  1.00  0.00     0.034 A 
HETATM    9  C   UNL     1     -39.780 -47.103  11.867  1.00  0.00     0.044 A 
HETATM   10  C   UNL     1     -40.774 -46.403  11.191  1.00  0.00     0.082 A 
HETATM   11  N   UNL     1     -41.715 -47.057  10.471  1.00  0.00    -0.354 N 
HETATM   12  C   UNL     1     -41.667 -48.415  10.439  1.00  0.00     0.119 A 
ATOM     13  HN  UNL     1     -42.439 -46.545   9.968  1.00  0.00     0.166 HD
BRANCH  10  14
HETATM   14  N   UNL     1     -40.762 -44.981  11.273  1.00  0.00    -0.270 NA
BRANCH  14  15
HETATM   15  C   UNL     1     -41.965 -44.516  11.984  1.00  0.00     0.092 C 
HETATM   16  C   UNL     1     -42.765 -43.499  11.187  1.00  0.00     0.021 C 
ENDBRANCH  14  15
BRANCH  14  17
HETATM   17  C   UNL     1     -39.449 -44.526  11.775  1.00  0.00     0.092 C 
HETATM   18  C   UNL     1     -39.604 -43.651  13.014  1.00  0.00     0.021 C 
ENDBRANCH  14  17
ENDBRANCH  10  14
ENDBRANCH   1   7
BRANCH   4  19
HETATM   19  C   UNL     1     -41.367 -53.846  12.597  1.00  0.00     0.121 C 
HETATM   20  C   UNL     1     -40.424 -54.137  13.778  1.00  0.00     0.057 C 
HETATM   21  C   UNL     1     -41.347 -54.440  14.969  1.00  0.00     0.275 C 
HETATM   22  N   UNL     1     -42.675 -54.602  14.370  1.00  0.00     0.095 N 
HETATM   23  C   UNL     1     -43.786 -54.405  15.299  1.00  0.00     0.273 C 
HETATM   24  C   UNL     1     -42.710 -53.600  13.295  1.00  0.00     0.245 C 
HETATM   25  C   UNL     1     -45.118 -54.536  14.545  1.00  0.00     0.030 C 
HETATM   26  C   UNL     1     -45.187 -53.627  13.312  1.00  0.00     0.004 C 
HETATM   27  C   UNL     1     -43.948 -53.801  12.433  1.00  0.00     0.038 C 
ENDBRANCH   4  19
TORSDOF 5
ENDMDL
MODEL 3
REMARK VINA RESULT:      -6.6      3.176      8.125
REMARK  5 active torsions:
REMARK  status: ('A' for Active; 'I' for Inactive)
REMARK    1  A    between atoms: C_2  and  N_3 
REMARK    2  A    between atoms: N_3  and  C_4 
REMARK    3  A    between atoms: N_3  and  C_6 
REMARK    4  A    between atoms: C_9  and  N_10 
REMARK       I    between atoms: N_10  and  C_11 
REMARK       I    between atoms: C_11  and  N_13 
REMARK    5  A    between atoms: N_13  and  C_14 
ROOT
HETATM    1  N   UNL     1     -41.032 -51.341  11.765  1.00  0.00    -0.308 N 
HETATM    2  C   UNL     1     -41.553 -50.098  12.057  1.00  0.00     0.321 C 
HETATM    3  O   UNL     1     -41.752 -49.656  13.180  1.00  0.00    -0.247 OA
HETATM    4  N   UNL     1     -41.833 -49.363  10.927  1.00  0.00    -0.336 N 
HETATM    5  H   UNL     1     -40.789 -51.530  10.805  1.00  0.00     0.170 HD
HETATM    6  H   UNL     1     -41.400 -49.651  10.065  1.00  0.00     0.164 HD
ENDROOT
BRANCH   1   7
HETATM    7  C   UNL     1     -40.704 -52.331  12.726  1.00  0.00     0.051 A 
HETATM    8  C   UNL     1     -39.595 -52.258  13.556  1.00  0.00     0.034 A 
HETATM    9  C   UNL     1     -39.340 -53.273  14.475  1.00  0.00     0.044 A 
HETATM   10  C   UNL     1     -40.199 -54.363  14.563  1.00  0.00     0.082 A 
HETATM   11  N   UNL     1     -41.296 -54.447  13.775  1.00  0.00    -0.354 N 
HETATM   12  C   UNL     1     -41.524 -53.443  12.888  1.00  0.00     0.119 A 
ATOM     13  HN  UNL     1     -41.932 -55.241  13.845  1.00  0.00     0.166 HD
BRANCH  10  14
HETATM   14  N   UNL     1     -39.894 -55.379  15.515  1.00  0.00    -0.270 NA
BRANCH  14  15
HETATM   15  C   UNL     1     -38.442 -55.414  15.752  1.00  0.00     0.092 C 
HETATM   16  C   UNL     1     -38.074 -56.098  17.059  1.00  0.00     0.021 C 
ENDBRANCH  14  15
BRANCH  14  17
HETATM   17  C   UNL     1     -40.779 -55.237  16.689  1.00  0.00     0.092 C 
HETATM   18  C   UNL     1     -41.820 -56.350  16.734  1.00  0.00     0.021 C 
ENDBRANCH  14  17
ENDBRANCH  10  14
ENDBRANCH   1   7
BRANCH   4  19
HETATM   19  C   UNL     1     -42.223 -47.958  11.013  1.00  0.00     0.121 C 
HETATM   20  C   UNL     1     -41.081 -46.932  10.891  1.00  0.00     0.057 C 
HETATM   21  C   UNL     1     -41.666 -45.770  10.073  1.00  0.00     0.275 C 
HETATM   22  N   UNL     1     -43.107 -46.034  10.040  1.00  0.00     0.095 N 
HETATM   23  C   UNL     1     -43.817 -45.382   8.942  1.00  0.00     0.273 C 
HETATM   24  C   UNL     1     -43.202 -47.497   9.926  1.00  0.00     0.245 C 
HETATM   25  C   UNL     1     -45.300 -45.785   8.975  1.00  0.00     0.030 C 
HETATM   26  C   UNL     1     -45.494 -47.306   9.008  1.00  0.00     0.004 C 
HETATM   27  C   UNL     1     -44.645 -47.943  10.108  1.00  0.00     0.038 C 
ENDBRANCH   4  19
TORSDOF 5
ENDMDL
MODEL 4
REMARK VINA RESULT:      -6.2      2.962      4.573
REMARK  5 active torsions:
REMARK  status: ('A' for Active; 'I' for Inactive)
REMARK    1  A    between atoms: C_2  and  N_3 
REMARK    2  A    between atoms: N_3  and  C_4 
REMARK    3  A    between atoms: N_3  and  C_6 
REMARK    4  A    between atoms: C_9  and  N_10 
REMARK       I    between atoms: N_10  and  C_11 
REMARK       I    between atoms: C_11  and  N_13 
REMARK    5  A    between atoms: N_13  and  C_14 
ROOT
HETATM    1  N   UNL     1     -41.822 -52.041  12.694  1.00  0.00    -0.308 N 
HETATM    2  C   UNL     1     -41.537 -52.374  14.001  1.00  0.00     0.321 C 
HETATM    3  O   UNL     1     -41.278 -51.582  14.897  1.00  0.00    -0.247 OA
HETATM    4  N   UNL     1     -41.580 -53.732  14.224  1.00  0.00    -0.336 N 
HETATM    5  H   UNL     1     -42.153 -52.777  12.089  1.00  0.00     0.170 HD
HETATM    6  H   UNL     1     -42.060 -54.300  13.545  1.00  0.00     0.164 HD
ENDROOT
BRANCH   1   7
HETATM    7  C   UNL     1     -41.795 -50.726  12.166  1.00  0.00     0.051 A 
HETATM    8  C   UNL     1     -42.718 -49.745  12.501  1.00  0.00     0.034 A 
HETATM    9  C   UNL     1     -42.626 -48.475  11.937  1.00  0.00     0.044 A 
HETATM   10  C   UNL     1     -41.606 -48.187  11.036  1.00  0.00     0.082 A 
HETATM   11  N   UNL     1     -40.686 -49.123  10.707  1.00  0.00    -0.354 N 
HETATM   12  C   UNL     1     -40.796 -50.354  11.273  1.00  0.00     0.119 A 
ATOM     13  HN  UNL     1     -39.932 -48.910  10.054  1.00  0.00     0.166 HD
BRANCH  10  14
HETATM   14  N   UNL     1     -41.555 -46.875  10.482  1.00  0.00    -0.270 NA
BRANCH  14  15
HETATM   15  C   UNL     1     -42.923 -46.362  10.300  1.00  0.00     0.092 C 
HETATM   16  C   UNL     1     -43.364 -46.360   8.845  1.00  0.00     0.021 C 
ENDBRANCH  14  15
BRANCH  14  17
HETATM   17  C   UNL     1     -40.608 -46.048  11.258  1.00  0.00     0.092 C 
HETATM   18  C   UNL     1     -39.688 -45.253  10.338  1.00  0.00     0.021 C 
ENDBRANCH  14  17
ENDBRANCH  10  14
ENDBRANCH   1   7
BRANCH   4  19
HETATM   19  C   UNL     1     -41.485 -54.284  15.573  1.00  0.00     0.121 C 
HETATM   20  C   UNL     1     -42.695 -55.108  16.051  1.00  0.00     0.057 C 
HETATM   21  C   UNL     1     -42.099 -56.270  16.861  1.00  0.00     0.275 C 
HETATM   22  N   UNL     1     -40.694 -55.899  17.054  1.00  0.00     0.095 N 
HETATM   23  C   UNL     1     -39.806 -57.022  17.347  1.00  0.00     0.273 C 
HETATM   24  C   UNL     1     -40.316 -55.252  15.788  1.00  0.00     0.245 C 
HETATM   25  C   UNL     1     -38.358 -56.518  17.462  1.00  0.00     0.030 C 
HETATM   26  C   UNL     1     -37.923 -55.701  16.240  1.00  0.00     0.004 C 
HETATM   27  C   UNL     1     -38.944 -54.609  15.919  1.00  0.00     0.038 C 
ENDBRANCH   4  19
TORSDOF 5
ENDMDL
MODEL 5
REMARK VINA RESULT:      -6.1      3.071      4.346
REMARK  5 active torsions:
REMARK  status: ('A' for Active; 'I' for Inactive)
REMARK    1  A    between atoms: C_2  and  N_3 
REMARK    2  A    between atoms: N_3  and  C_4 
REMARK    3  A    between atoms: N_3  and  C_6 
REMARK    4  A    between atoms: C_9  and  N_10 
REMARK       I    between atoms: N_10  and  C_11 
REMARK       I    between atoms: C_11  and  N_13 
REMARK    5  A    between atoms: N_13  and  C_14 
ROOT
HETATM    1  N   UNL     1     -41.141 -50.252  13.213  1.00  0.00    -0.308 N 
HETATM    2  C   UNL     1     -41.198 -51.630  13.213  1.00  0.00     0.321 C 
HETATM    3  O   UNL     1     -41.697 -52.322  12.337  1.00  0.00    -0.247 OA
HETATM    4  N   UNL     1     -40.609 -52.184  14.328  1.00  0.00    -0.336 N 
HETATM    5  H   UNL     1     -40.581 -49.809  13.925  1.00  0.00     0.170 HD
HETATM    6  H   UNL     1     -39.982 -51.602  14.861  1.00  0.00     0.164 HD
ENDROOT
BRANCH   1   7
HETATM    7  C   UNL     1     -41.715 -49.416  12.222  1.00  0.00     0.051 A 
HETATM    8  C   UNL     1     -42.935 -48.771  12.374  1.00  0.00     0.034 A 
HETATM    9  C   UNL     1     -43.433 -47.966  11.352  1.00  0.00     0.044 A 
HETATM   10  C   UNL     1     -42.707 -47.805  10.178  1.00  0.00     0.082 A 
HETATM   11  N   UNL     1     -41.508 -48.410  10.014  1.00  0.00    -0.354 N 
HETATM   12  C   UNL     1     -41.042 -49.189  11.026  1.00  0.00     0.119 A 
ATOM     13  HN  UNL     1     -40.970 -48.286   9.157  1.00  0.00     0.166 HD
BRANCH  10  14
HETATM   14  N   UNL     1     -43.260 -46.975   9.159  1.00  0.00    -0.270 NA
BRANCH  14  15
HETATM   15  C   UNL     1     -44.425 -47.643   8.555  1.00  0.00     0.092 C 
HETATM   16  C   UNL     1     -45.744 -47.000   8.949  1.00  0.00     0.021 C 
ENDBRANCH  14  15
BRANCH  14  17
HETATM   17  C   UNL     1     -43.449 -45.608   9.685  1.00  0.00     0.092 C 
HETATM   18  C   UNL     1     -42.178 -45.092  10.351  1.00  0.00     0.021 C 
ENDBRANCH  14  17
ENDBRANCH  10  14
ENDBRANCH   1   7
BRANCH   4  19
HETATM   19  C   UNL     1     -40.402 -53.625  14.440  1.00  0.00     0.121 C 
HETATM   20  C   UNL     1     -38.939 -54.103  14.379  1.00  0.00     0.057 C 
HETATM   21  C   UNL     1     -38.846 -55.253  15.394  1.00  0.00     0.275 C 
HETATM   22  N   UNL     1     -40.240 -55.557  15.731  1.00  0.00     0.095 N 
HETATM   23  C   UNL     1     -40.417 -56.246  17.008  1.00  0.00     0.273 C 
HETATM   24  C   UNL     1     -40.900 -54.244  15.752  1.00  0.00     0.245 C 
HETATM   25  C   UNL     1     -41.916 -56.450  17.280  1.00  0.00     0.030 C 
HETATM   26  C   UNL     1     -42.714 -55.145  17.176  1.00  0.00     0.004 C 
HETATM   27  C   UNL     1     -42.407 -54.418  15.867  1.00  0.00     0.038 C 
ENDBRANCH   4  19
TORSDOF 5
ENDMDL
MODEL 6
REMARK VINA RESULT:      -6.0      2.851      4.638
REMARK  5 active torsions:
REMARK  status: ('A' for Active; 'I' for Inactive)
REMARK    1  A    between atoms: C_2  and  N_3 
REMARK    2  A    between atoms: N_3  and  C_4 
REMARK    3  A    between atoms: N_3  and  C_6 
REMARK    4  A    between atoms: C_9  and  N_10 
REMARK       I    between atoms: N_10  and  C_11 
REMARK       I    between atoms: C_11  and  N_13 
REMARK    5  A    between atoms: N_13  and  C_14 
ROOT
HETATM    1  N   UNL     1     -40.456 -47.621  10.661  1.00  0.00    -0.308 N 
HETATM    2  C   UNL     1     -39.932 -48.498  11.587  1.00  0.00     0.321 C 
HETATM    3  O   UNL     1     -39.805 -48.277  12.783  1.00  0.00    -0.247 OA
HETATM    4  N   UNL     1     -39.557 -49.699  11.027  1.00  0.00    -0.336 N 
HETATM    5  H   UNL     1     -40.633 -47.975   9.733  1.00  0.00     0.170 HD
HETATM    6  H   UNL     1     -39.933 -49.927  10.120  1.00  0.00     0.164 HD
ENDROOT
BRANCH   1   7
HETATM    7  C   UNL     1     -40.871 -46.295  10.941  1.00  0.00     0.051 A 
HETATM    8  C   UNL     1     -40.070 -45.180  10.739  1.00  0.00     0.034 A 
HETATM    9  C   UNL     1     -40.551 -43.908  11.041  1.00  0.00     0.044 A 
HETATM   10  C   UNL     1     -41.837 -43.753  11.547  1.00  0.00     0.082 A 
HETATM   11  N   UNL     1     -42.641 -44.824  11.737  1.00  0.00    -0.354 N 
HETATM   12  C   UNL     1     -42.150 -46.055  11.433  1.00  0.00     0.119 A 
ATOM     13  HN  UNL     1     -43.588 -44.712  12.099  1.00  0.00     0.166 HD
BRANCH  10  14
HETATM   14  N   UNL     1     -42.282 -42.433  11.846  1.00  0.00    -0.270 NA
BRANCH  14  15
HETATM   15  C   UNL     1     -41.155 -41.493  11.730  1.00  0.00     0.092 C 
HETATM   16  C   UNL     1     -40.775 -40.862  13.060  1.00  0.00     0.021 C 
ENDBRANCH  14  15
BRANCH  14  17
HETATM   17  C   UNL     1     -43.505 -42.138  11.071  1.00  0.00     0.092 C 
HETATM   18  C   UNL     1     -44.309 -41.013  11.716  1.00  0.00     0.021 C 
ENDBRANCH  14  17
ENDBRANCH  10  14
ENDBRANCH   1   7
BRANCH   4  19
HETATM   19  C   UNL     1     -39.146 -50.829  11.856  1.00  0.00     0.121 C 
HETATM   20  C   UNL     1     -38.067 -50.532  12.913  1.00  0.00     0.057 C 
HETATM   21  C   UNL     1     -38.469 -51.359  14.145  1.00  0.00     0.275 C 
HETATM   22  N   UNL     1     -39.510 -52.266  13.653  1.00  0.00     0.095 N 
HETATM   23  C   UNL     1     -40.391 -52.797  14.691  1.00  0.00     0.273 C 
HETATM   24  C   UNL     1     -40.270 -51.452  12.692  1.00  0.00     0.245 C 
HETATM   25  C   UNL     1     -41.475 -53.676  14.049  1.00  0.00     0.030 C 
HETATM   26  C   UNL     1     -42.227 -52.953  12.925  1.00  0.00     0.004 C 
HETATM   27  C   UNL     1     -41.251 -52.328  11.927  1.00  0.00     0.038 C 
ENDBRANCH   4  19
TORSDOF 5
ENDMDL
MODEL 7
REMARK VINA RESULT:      -5.9      3.089      8.133
REMARK  5 active torsions:
REMARK  status: ('A' for Active; 'I' for Inactive)
REMARK    1  A    between atoms: C_2  and  N_3 
REMARK    2  A    between atoms: N_3  and  C_4 
REMARK    3  A    between atoms: N_3  and  C_6 
REMARK    4  A    between atoms: C_9  and  N_10 
REMARK       I    between atoms: N_10  and  C_11 
REMARK       I    between atoms: C_11  and  N_13 
REMARK    5  A    between atoms: N_13  and  C_14 
ROOT
HETATM    1  N   UNL     1     -40.391 -50.951  11.417  1.00  0.00    -0.308 N 
HETATM    2  C   UNL     1     -41.232 -49.860  11.477  1.00  0.00     0.321 C 
HETATM    3  O   UNL     1     -41.979 -49.587  12.407  1.00  0.00    -0.247 OA
HETATM    4  N   UNL     1     -41.147 -49.063  10.357  1.00  0.00    -0.336 N 
HETATM    5  H   UNL     1     -39.727 -50.985  10.658  1.00  0.00     0.170 HD
HETATM    6  H   UNL     1     -40.337 -49.173   9.768  1.00  0.00     0.164 HD
ENDROOT
BRANCH   1   7
HETATM    7  C   UNL     1     -40.309 -51.968  12.400  1.00  0.00     0.051 A 
HETATM    8  C   UNL     1     -41.094 -53.112  12.389  1.00  0.00     0.034 A 
HETATM    9  C   UNL     1     -40.956 -54.067  13.394  1.00  0.00     0.044 A 
HETATM   10  C   UNL     1     -40.027 -53.876  14.411  1.00  0.00     0.082 A 
HETATM   11  N   UNL     1     -39.239 -52.776  14.433  1.00  0.00    -0.354 N 
HETATM   12  C   UNL     1     -39.392 -51.860  13.441  1.00  0.00     0.119 A 
ATOM     13  HN  UNL     1     -38.551 -52.639  15.174  1.00  0.00     0.166 HD
BRANCH  10  14
HETATM   14  N   UNL     1     -39.925 -54.878  15.419  1.00  0.00    -0.270 NA
BRANCH  14  15
HETATM   15  C   UNL     1     -38.769 -54.592  16.286  1.00  0.00     0.092 C 
HETATM   16  C   UNL     1     -37.865 -55.798  16.480  1.00  0.00     0.021 C 
ENDBRANCH  14  15
BRANCH  14  17
HETATM   17  C   UNL     1     -41.240 -55.063  16.066  1.00  0.00     0.092 C 
HETATM   18  C   UNL     1     -41.365 -54.203  17.318  1.00  0.00     0.021 C 
ENDBRANCH  14  17
ENDBRANCH  10  14
ENDBRANCH   1   7
BRANCH   4  19
HETATM   19  C   UNL     1     -41.817 -47.767  10.294  1.00  0.00     0.121 C 
HETATM   20  C   UNL     1     -43.312 -47.762  10.662  1.00  0.00     0.057 C 
HETATM   21  C   UNL     1     -43.533 -46.457  11.442  1.00  0.00     0.275 C 
HETATM   22  N   UNL     1     -42.305 -45.687  11.222  1.00  0.00     0.095 N 
HETATM   23  C   UNL     1     -42.048 -44.657  12.227  1.00  0.00     0.273 C 
HETATM   24  C   UNL     1     -41.240 -46.700  11.231  1.00  0.00     0.245 C 
HETATM   25  C   UNL     1     -40.709 -43.967  11.927  1.00  0.00     0.030 C 
HETATM   26  C   UNL     1     -39.556 -44.966  11.771  1.00  0.00     0.004 C 
HETATM   27  C   UNL     1     -39.923 -46.078  10.788  1.00  0.00     0.038 C 
ENDBRANCH   4  19
TORSDOF 5
ENDMDL
MODEL 8
REMARK VINA RESULT:      -5.9      4.620      6.603
REMARK  5 active torsions:
REMARK  status: ('A' for Active; 'I' for Inactive)
REMARK    1  A    between atoms: C_2  and  N_3 
REMARK    2  A    between atoms: N_3  and  C_4 
REMARK    3  A    between atoms: N_3  and  C_6 
REMARK    4  A    between atoms: C_9  and  N_10 
REMARK       I    between atoms: N_10  and  C_11 
REMARK       I    between atoms: C_11  and  N_13 
REMARK    5  A    between atoms: N_13  and  C_14 
ROOT
HETATM    1  N   UNL     1     -40.337 -46.983  13.529  1.00  0.00    -0.308 N 
HETATM    2  C   UNL     1     -39.488 -48.045  13.762  1.00  0.00     0.321 C 
HETATM    3  O   UNL     1     -39.402 -49.052  13.072  1.00  0.00    -0.247 OA
HETATM    4  N   UNL     1     -38.705 -47.862  14.880  1.00  0.00    -0.336 N 
HETATM    5  H   UNL     1     -40.212 -46.156  14.092  1.00  0.00     0.170 HD
HETATM    6  H   UNL     1     -38.615 -46.924  15.237  1.00  0.00     0.164 HD
ENDROOT
BRANCH   1   7
HETATM    7  C   UNL     1     -41.294 -46.922  12.486  1.00  0.00     0.051 A 
HETATM    8  C   UNL     1     -42.597 -47.383  12.610  1.00  0.00     0.034 A 
HETATM    9  C   UNL     1     -43.479 -47.289  11.537  1.00  0.00     0.044 A 
HETATM   10  C   UNL     1     -43.055 -46.731  10.336  1.00  0.00     0.082 A 
HETATM   11  N   UNL     1     -41.794 -46.260  10.196  1.00  0.00    -0.354 N 
HETATM   12  C   UNL     1     -40.953 -46.362  11.259  1.00  0.00     0.119 A 
ATOM     13  HN  UNL     1     -41.484 -45.843   9.319  1.00  0.00     0.166 HD
BRANCH  10  14
HETATM   14  N   UNL     1     -43.992 -46.661   9.264  1.00  0.00    -0.270 NA
BRANCH  14  15
HETATM   15  C   UNL     1     -43.284 -46.784   7.979  1.00  0.00     0.092 C 
HETATM   16  C   UNL     1     -43.411 -48.169   7.367  1.00  0.00     0.021 C 
ENDBRANCH  14  15
BRANCH  14  17
HETATM   17  C   UNL     1     -45.110 -47.590   9.525  1.00  0.00     0.092 C 
HETATM   18  C   UNL     1     -46.445 -46.979   9.113  1.00  0.00     0.021 C 
ENDBRANCH  14  17
ENDBRANCH  10  14
ENDBRANCH   1   7
BRANCH   4  19
HETATM   19  C   UNL     1     -37.617 -48.780  15.203  1.00  0.00     0.121 C 
HETATM   20  C   UNL     1     -36.306 -48.131  15.684  1.00  0.00     0.057 C 
HETATM   21  C   UNL     1     -35.773 -49.061  16.785  1.00  0.00     0.275 C 
HETATM   22  N   UNL     1     -36.588 -50.273  16.667  1.00  0.00     0.095 N 
HETATM   23  C   UNL     1     -36.631 -51.095  17.874  1.00  0.00     0.273 C 
HETATM   24  C   UNL     1     -37.929 -49.773  16.329  1.00  0.00     0.245 C 
HETATM   25  C   UNL     1     -37.563 -52.295  17.649  1.00  0.00     0.030 C 
HETATM   26  C   UNL     1     -38.951 -51.875  17.149  1.00  0.00     0.004 C 
HETATM   27  C   UNL     1     -38.839 -50.932  15.951  1.00  0.00     0.038 C 
ENDBRANCH   4  19
TORSDOF 5
ENDMDL
MODEL 9
REMARK VINA RESULT:      -5.8      1.959      8.657
REMARK  5 active torsions:
REMARK  status: ('A' for Active; 'I' for Inactive)
REMARK    1  A    between atoms: C_2  and  N_3 
REMARK    2  A    between atoms: N_3  and  C_4 
REMARK    3  A    between atoms: N_3  and  C_6 
REMARK    4  A    between atoms: C_9  and  N_10 
REMARK       I    between atoms: N_10  and  C_11 
REMARK       I    between atoms: C_11  and  N_13 
REMARK    5  A    between atoms: N_13  and  C_14 
ROOT
HETATM    1  N   UNL     1     -42.915 -50.653  12.632  1.00  0.00    -0.308 N 
HETATM    2  C   UNL     1     -42.844 -49.394  12.073  1.00  0.00     0.321 C 
HETATM    3  O   UNL     1     -43.475 -48.414  12.445  1.00  0.00    -0.247 OA
HETATM    4  N   UNL     1     -41.956 -49.330  11.024  1.00  0.00    -0.336 N 
HETATM    5  H   UNL     1     -42.243 -51.338  12.322  1.00  0.00     0.170 HD
HETATM    6  H   UNL     1     -41.275 -50.068  10.944  1.00  0.00     0.164 HD
ENDROOT
BRANCH   1   7
HETATM    7  C   UNL     1     -43.785 -51.026  13.687  1.00  0.00     0.051 A 
HETATM    8  C   UNL     1     -45.151 -51.213  13.528  1.00  0.00     0.034 A 
HETATM    9  C   UNL     1     -45.940 -51.577  14.616  1.00  0.00     0.044 A 
HETATM   10  C   UNL     1     -45.359 -51.756  15.866  1.00  0.00     0.082 A 
HETATM   11  N   UNL     1     -44.027 -51.595  16.042  1.00  0.00    -0.354 N 
HETATM   12  C   UNL     1     -43.278 -51.241  14.964  1.00  0.00     0.119 A 
ATOM     13  HN  UNL     1     -43.598 -51.735  16.957  1.00  0.00     0.166 HD
BRANCH  10  14
HETATM   14  N   UNL     1     -46.208 -52.125  16.950  1.00  0.00    -0.270 NA
BRANCH  14  15
HETATM   15  C   UNL     1     -47.559 -51.585  16.726  1.00  0.00     0.092 C 
HETATM   16  C   UNL     1     -47.964 -50.557  17.770  1.00  0.00     0.021 C 
ENDBRANCH  14  15
BRANCH  14  17
HETATM   17  C   UNL     1     -46.081 -53.574  17.206  1.00  0.00     0.092 C 
HETATM   18  C   UNL     1     -45.711 -53.849  18.659  1.00  0.00     0.021 C 
ENDBRANCH  14  17
ENDBRANCH  10  14
ENDBRANCH   1   7
BRANCH   4  19
HETATM   19  C   UNL     1     -41.597 -48.055  10.409  1.00  0.00     0.121 C 
HETATM   20  C   UNL     1     -42.706 -47.361   9.597  1.00  0.00     0.057 C 
HETATM   21  C   UNL     1     -42.544 -45.861   9.891  1.00  0.00     0.275 C 
HETATM   22  N   UNL     1     -41.245 -45.757  10.560  1.00  0.00     0.095 N 
HETATM   23  C   UNL     1     -41.076 -44.552  11.370  1.00  0.00     0.273 C 
HETATM   24  C   UNL     1     -41.175 -46.962  11.399  1.00  0.00     0.245 C 
HETATM   25  C   UNL     1     -39.708 -44.588  12.070  1.00  0.00     0.030 C 
HETATM   26  C   UNL     1     -39.485 -45.886  12.856  1.00  0.00     0.004 C 
HETATM   27  C   UNL     1     -39.779 -47.110  11.987  1.00  0.00     0.038 C 
ENDBRANCH   4  19
TORSDOF 5
ENDMDL
