MODEL 1
REMARK VINA RESULT:      -5.3      0.000      0.000
REMARK  2 active torsions:
REMARK  status: ('A' for Active; 'I' for Inactive)
REMARK       I    between atoms: N_2  and  C_3 
REMARK       I    between atoms: C_3  and  N_5 
REMARK    1  A    between atoms: N_5  and  C_6 
REMARK    2  A    between atoms: C_9  and  N_13 
ROOT
HETATM    1  C   UNL     1     -41.300 -48.954  11.221  1.00  0.00     0.051 A 
HETATM    2  C   UNL     1     -40.545 -50.094  11.435  1.00  0.00     0.035 A 
HETATM    3  C   UNL     1     -41.082 -51.164  12.155  1.00  0.00     0.051 A 
HETATM    4  C   UNL     1     -42.380 -51.100  12.658  1.00  0.00     0.103 A 
HETATM    5  N   UNL     1     -43.105 -49.968  12.506  1.00  0.00    -0.350 N 
ATOM      6  HN  UNL     1     -44.039 -49.890  12.908  1.00  0.00     0.166 HD
HETATM    7  C   UNL     1     -42.562 -48.935  11.805  1.00  0.00     0.119 A 
ENDROOT
BRANCH   1   8
HETATM    8  N   UNL     1     -40.841 -47.849  10.470  1.00  0.00    -0.308 N 
HETATM    9  C   UNL     1     -40.383 -46.665  11.012  1.00  0.00     0.320 C 
HETATM   10  N   UNL     1     -40.089 -45.739  10.031  1.00  0.00    -0.347 N 
HETATM   11  O   UNL     1     -40.215 -46.427  12.201  1.00  0.00    -0.247 OA
HETATM   12  C   UNL     1     -39.601 -44.445  10.447  1.00  0.00     0.151 C 
HETATM   13  H   UNL     1     -40.697 -45.758   9.226  1.00  0.00     0.163 HD
HETATM   14  H   UNL     1     -40.581 -48.014   9.509  1.00  0.00     0.170 HD
ENDBRANCH   1   8
BRANCH   4  15
HETATM   15  N   UNL     1     -42.946 -52.168  13.321  1.00  0.00    -0.367 N 
HETATM   16  C   UNL     1     -43.993 -52.950  12.673  1.00  0.00     0.124 C 
HETATM   17  C   UNL     1     -44.014 -54.277  13.435  1.00  0.00     0.021 C 
HETATM   18  C   UNL     1     -42.650 -54.360  14.097  1.00  0.00     0.021 C 
HETATM   19  C   UNL     1     -42.299 -52.908  14.392  1.00  0.00     0.124 C 
ENDBRANCH   4  15
TORSDOF 2
ENDMDL
MODEL 2
REMARK VINA RESULT:      -5.2      2.861      3.784
REMARK  2 active torsions:
REMARK  status: ('A' for Active; 'I' for Inactive)
REMARK       I    between atoms: N_2  and  C_3 
REMARK       I    between atoms: C_3  and  N_5 
REMARK    1  A    between atoms: N_5  and  C_6 
REMARK    2  A    between atoms: C_9  and  N_13 
ROOT
HETATM    1  C   UNL     1     -41.914 -51.301  12.186  1.00  0.00     0.051 A 
HETATM    2  C   UNL     1     -42.308 -52.620  12.332  1.00  0.00     0.035 A 
HETATM    3  C   UNL     1     -43.444 -52.931  13.083  1.00  0.00     0.051 A 
HETATM    4  C   UNL     1     -44.195 -51.923  13.683  1.00  0.00     0.103 A 
HETATM    5  N   UNL     1     -43.786 -50.637  13.597  1.00  0.00    -0.350 N 
ATOM      6  HN  UNL     1     -44.300 -49.894  14.071  1.00  0.00     0.166 HD
HETATM    7  C   UNL     1     -42.673 -50.354  12.865  1.00  0.00     0.119 A 
ENDROOT
BRANCH   1   8
HETATM    8  N   UNL     1     -40.801 -50.905  11.412  1.00  0.00    -0.308 N 
HETATM    9  C   UNL     1     -39.555 -50.602  11.922  1.00  0.00     0.320 C 
HETATM   10  N   UNL     1     -38.696 -50.161  10.934  1.00  0.00    -0.347 N 
HETATM   11  O   UNL     1     -39.198 -50.720  13.087  1.00  0.00    -0.247 OA
HETATM   12  C   UNL     1     -37.351 -49.800  11.318  1.00  0.00     0.151 C 
HETATM   13  H   UNL     1     -39.126 -49.606  10.209  1.00  0.00     0.163 HD
HETATM   14  H   UNL     1     -40.826 -51.104  10.422  1.00  0.00     0.170 HD
ENDBRANCH   1   8
BRANCH   4  15
HETATM   15  N   UNL     1     -45.351 -52.207  14.379  1.00  0.00    -0.367 N 
HETATM   16  C   UNL     1     -45.271 -52.875  15.673  1.00  0.00     0.124 C 
HETATM   17  C   UNL     1     -46.612 -52.578  16.348  1.00  0.00     0.021 C 
HETATM   18  C   UNL     1     -47.135 -51.344  15.632  1.00  0.00     0.021 C 
HETATM   19  C   UNL     1     -46.609 -51.497  14.211  1.00  0.00     0.124 C 
ENDBRANCH   4  15
TORSDOF 2
ENDMDL
MODEL 3
REMARK VINA RESULT:      -5.1      2.175      6.920
REMARK  2 active torsions:
REMARK  status: ('A' for Active; 'I' for Inactive)
REMARK       I    between atoms: N_2  and  C_3 
REMARK       I    between atoms: C_3  and  N_5 
REMARK    1  A    between atoms: N_5  and  C_6 
REMARK    2  A    between atoms: C_9  and  N_13 
ROOT
HETATM    1  C   UNL     1     -40.654 -49.339  11.021  1.00  0.00     0.051 A 
HETATM    2  C   UNL     1     -39.684 -48.629  11.707  1.00  0.00     0.035 A 
HETATM    3  C   UNL     1     -39.704 -47.232  11.700  1.00  0.00     0.051 A 
HETATM    4  C   UNL     1     -40.699 -46.541  11.013  1.00  0.00     0.103 A 
HETATM    5  N   UNL     1     -41.616 -47.224  10.290  1.00  0.00    -0.350 N 
ATOM      6  HN  UNL     1     -42.322 -46.729   9.745  1.00  0.00     0.166 HD
HETATM    7  C   UNL     1     -41.578 -48.584  10.305  1.00  0.00     0.119 A 
ENDROOT
BRANCH   1   8
HETATM    8  N   UNL     1     -40.723 -50.750  11.013  1.00  0.00    -0.308 N 
HETATM    9  C   UNL     1     -41.042 -51.528  12.107  1.00  0.00     0.320 C 
HETATM   10  N   UNL     1     -40.941 -52.875  11.818  1.00  0.00    -0.347 N 
HETATM   11  O   UNL     1     -41.403 -51.125  13.205  1.00  0.00    -0.247 OA
HETATM   12  C   UNL     1     -41.242 -53.817  12.871  1.00  0.00     0.151 C 
HETATM   13  H   UNL     1     -40.195 -53.123  11.186  1.00  0.00     0.163 HD
HETATM   14  H   UNL     1     -40.807 -51.208  10.117  1.00  0.00     0.170 HD
ENDBRANCH   1   8
BRANCH   4  15
HETATM   15  N   UNL     1     -40.767 -45.164  11.042  1.00  0.00    -0.367 N 
HETATM   16  C   UNL     1     -42.068 -44.503  11.058  1.00  0.00     0.124 C 
HETATM   17  C   UNL     1     -41.782 -43.096  11.585  1.00  0.00     0.021 C 
HETATM   18  C   UNL     1     -40.460 -43.224  12.322  1.00  0.00     0.021 C 
HETATM   19  C   UNL     1     -39.712 -44.298  11.545  1.00  0.00     0.124 C 
ENDBRANCH   4  15
TORSDOF 2
ENDMDL
MODEL 4
REMARK VINA RESULT:      -5.1      1.197      1.837
REMARK  2 active torsions:
REMARK  status: ('A' for Active; 'I' for Inactive)
REMARK       I    between atoms: N_2  and  C_3 
REMARK       I    between atoms: C_3  and  N_5 
REMARK    1  A    between atoms: N_5  and  C_6 
REMARK    2  A    between atoms: C_9  and  N_13 
ROOT
HETATM    1  C   UNL     1     -41.321 -48.913  11.074  1.00  0.00     0.051 A 
HETATM    2  C   UNL     1     -42.340 -49.189  11.970  1.00  0.00     0.035 A 
HETATM    3  C   UNL     1     -42.419 -50.448  12.571  1.00  0.00     0.051 A 
HETATM    4  C   UNL     1     -41.475 -51.432  12.285  1.00  0.00     0.103 A 
HETATM    5  N   UNL     1     -40.511 -51.192  11.366  1.00  0.00    -0.350 N 
ATOM      6  HN  UNL     1     -39.841 -51.918  11.113  1.00  0.00     0.166 HD
HETATM    7  C   UNL     1     -40.453 -49.961  10.788  1.00  0.00     0.119 A 
ENDROOT
BRANCH   1   8
HETATM    8  N   UNL     1     -41.152 -47.653  10.456  1.00  0.00    -0.308 N 
HETATM    9  C   UNL     1     -40.425 -46.608  10.987  1.00  0.00     0.320 C 
HETATM   10  N   UNL     1     -40.515 -45.477  10.200  1.00  0.00    -0.347 N 
HETATM   11  O   UNL     1     -39.747 -46.637  12.006  1.00  0.00    -0.247 OA
HETATM   12  C   UNL     1     -39.807 -44.294  10.632  1.00  0.00     0.151 C 
HETATM   13  H   UNL     1     -41.410 -45.333   9.756  1.00  0.00     0.163 HD
HETATM   14  H   UNL     1     -41.341 -47.591   9.467  1.00  0.00     0.170 HD
ENDBRANCH   1   8
BRANCH   4  15
HETATM   15  N   UNL     1     -41.504 -52.659  12.912  1.00  0.00    -0.367 N 
HETATM   16  C   UNL     1     -40.452 -53.015  13.857  1.00  0.00     0.124 C 
HETATM   17  C   UNL     1     -41.048 -54.149  14.694  1.00  0.00     0.021 C 
HETATM   18  C   UNL     1     -42.551 -53.999  14.527  1.00  0.00     0.021 C 
HETATM   19  C   UNL     1     -42.708 -53.450  13.115  1.00  0.00     0.124 C 
ENDBRANCH   4  15
TORSDOF 2
ENDMDL
MODEL 5
REMARK VINA RESULT:      -5.0      3.595      5.174
REMARK  2 active torsions:
REMARK  status: ('A' for Active; 'I' for Inactive)
REMARK       I    between atoms: N_2  and  C_3 
REMARK       I    between atoms: C_3  and  N_5 
REMARK    1  A    between atoms: N_5  and  C_6 
REMARK    2  A    between atoms: C_9  and  N_13 
ROOT
HETATM    1  C   UNL     1     -41.081 -48.284  10.753  1.00  0.00     0.051 A 
HETATM    2  C   UNL     1     -40.464 -47.208  11.367  1.00  0.00     0.035 A 
HETATM    3  C   UNL     1     -39.444 -47.425  12.296  1.00  0.00     0.051 A 
HETATM    4  C   UNL     1     -39.032 -48.719  12.609  1.00  0.00     0.103 A 
HETATM    5  N   UNL     1     -39.669 -49.778  12.060  1.00  0.00    -0.350 N 
ATOM      6  HN  UNL     1     -39.409 -50.731  12.315  1.00  0.00     0.166 HD
HETATM    7  C   UNL     1     -40.664 -49.546  11.160  1.00  0.00     0.119 A 
ENDROOT
BRANCH   1   8
HETATM    8  N   UNL     1     -42.092 -48.144   9.775  1.00  0.00    -0.308 N 
HETATM    9  C   UNL     1     -43.389 -47.753  10.035  1.00  0.00     0.320 C 
HETATM   10  N   UNL     1     -44.169 -47.795   8.896  1.00  0.00    -0.347 N 
HETATM   11  O   UNL     1     -43.833 -47.379  11.113  1.00  0.00    -0.247 OA
HETATM   12  C   UNL     1     -45.558 -47.415   9.013  1.00  0.00     0.151 C 
HETATM   13  H   UNL     1     -43.956 -48.547   8.258  1.00  0.00     0.163 HD
HETATM   14  H   UNL     1     -41.801 -48.066   8.812  1.00  0.00     0.170 HD
ENDBRANCH   1   8
BRANCH   4  15
HETATM   15  N   UNL     1     -37.989 -48.949  13.480  1.00  0.00    -0.367 N 
HETATM   16  C   UNL     1     -37.548 -47.888  14.379  1.00  0.00     0.124 C 
HETATM   17  C   UNL     1     -36.779 -48.611  15.486  1.00  0.00     0.021 C 
HETATM   18  C   UNL     1     -37.281 -50.043  15.429  1.00  0.00     0.021 C 
HETATM   19  C   UNL     1     -37.587 -50.264  13.954  1.00  0.00     0.124 C 
ENDBRANCH   4  15
TORSDOF 2
ENDMDL
MODEL 6
REMARK VINA RESULT:      -5.0      2.938      3.828
REMARK  2 active torsions:
REMARK  status: ('A' for Active; 'I' for Inactive)
REMARK       I    between atoms: N_2  and  C_3 
REMARK       I    between atoms: C_3  and  N_5 
REMARK    1  A    between atoms: N_5  and  C_6 
REMARK    2  A    between atoms: C_9  and  N_13 
ROOT
HETATM    1  C   UNL     1     -40.235 -50.936  11.765  1.00  0.00     0.051 A 
HETATM    2  C   UNL     1     -40.973 -52.074  12.045  1.00  0.00     0.035 A 
HETATM    3  C   UNL     1     -40.566 -52.937  13.065  1.00  0.00     0.051 A 
HETATM    4  C   UNL     1     -39.425 -52.661  13.815  1.00  0.00     0.103 A 
HETATM    5  N   UNL     1     -38.664 -51.585  13.510  1.00  0.00    -0.350 N 
ATOM      6  HN  UNL     1     -37.801 -51.396  14.020  1.00  0.00     0.166 HD
HETATM    7  C   UNL     1     -39.074 -50.758  12.509  1.00  0.00     0.119 A 
ENDROOT
BRANCH   1   8
HETATM    8  N   UNL     1     -40.602 -49.997  10.776  1.00  0.00    -0.308 N 
HETATM    9  C   UNL     1     -41.489 -48.957  10.969  1.00  0.00     0.320 C 
HETATM   10  N   UNL     1     -41.719 -48.263   9.797  1.00  0.00    -0.347 N 
HETATM   11  O   UNL     1     -42.009 -48.633  12.028  1.00  0.00    -0.247 OA
HETATM   12  C   UNL     1     -42.632 -47.145   9.842  1.00  0.00     0.151 C 
HETATM   13  H   UNL     1     -41.730 -48.826   8.960  1.00  0.00     0.163 HD
HETATM   14  H   UNL     1     -40.001 -49.909   9.970  1.00  0.00     0.170 HD
ENDBRANCH   1   8
BRANCH   4  15
HETATM   15  N   UNL     1     -39.041 -53.471  14.863  1.00  0.00    -0.367 N 
HETATM   16  C   UNL     1     -39.082 -52.957  16.227  1.00  0.00     0.124 C 
HETATM   17  C   UNL     1     -39.092 -54.206  17.112  1.00  0.00     0.021 C 
HETATM   18  C   UNL     1     -39.588 -55.316  16.202  1.00  0.00     0.021 C 
HETATM   19  C   UNL     1     -39.059 -54.925  14.828  1.00  0.00     0.124 C 
ENDBRANCH   4  15
TORSDOF 2
ENDMDL
MODEL 7
REMARK VINA RESULT:      -5.0      4.212      5.509
REMARK  2 active torsions:
REMARK  status: ('A' for Active; 'I' for Inactive)
REMARK       I    between atoms: N_2  and  C_3 
REMARK       I    between atoms: C_3  and  N_5 
REMARK    1  A    between atoms: N_5  and  C_6 
REMARK    2  A    between atoms: C_9  and  N_13 
ROOT
HETATM    1  C   UNL     1     -39.826 -47.695  11.676  1.00  0.00     0.051 A 
HETATM    2  C   UNL     1     -39.164 -48.909  11.733  1.00  0.00     0.035 A 
HETATM    3  C   UNL     1     -38.414 -49.243  12.863  1.00  0.00     0.051 A 
HETATM    4  C   UNL     1     -38.329 -48.367  13.943  1.00  0.00     0.103 A 
HETATM    5  N   UNL     1     -38.923 -47.154  13.873  1.00  0.00    -0.350 N 
ATOM      6  HN  UNL     1     -38.831 -46.484  14.637  1.00  0.00     0.166 HD
HETATM    7  C   UNL     1     -39.646 -46.845  12.762  1.00  0.00     0.119 A 
ENDROOT
BRANCH   1   8
HETATM    8  N   UNL     1     -40.635 -47.303  10.586  1.00  0.00    -0.308 N 
HETATM    9  C   UNL     1     -41.944 -47.695  10.396  1.00  0.00     0.320 C 
HETATM   10  N   UNL     1     -42.445 -47.227   9.198  1.00  0.00    -0.347 N 
HETATM   11  O   UNL     1     -42.626 -48.350  11.174  1.00  0.00    -0.247 OA
HETATM   12  C   UNL     1     -43.809 -47.562   8.858  1.00  0.00     0.151 C 
HETATM   13  H   UNL     1     -41.782 -47.195   8.438  1.00  0.00     0.163 HD
HETATM   14  H   UNL     1     -40.346 -46.492  10.059  1.00  0.00     0.170 HD
ENDBRANCH   1   8
BRANCH   4  15
HETATM   15  N   UNL     1     -37.641 -48.705  15.089  1.00  0.00    -0.367 N 
HETATM   16  C   UNL     1     -36.955 -49.990  15.170  1.00  0.00     0.124 C 
HETATM   17  C   UNL     1     -35.934 -49.816  16.296  1.00  0.00     0.021 C 
HETATM   18  C   UNL     1     -35.745 -48.313  16.412  1.00  0.00     0.021 C 
HETATM   19  C   UNL     1     -37.109 -47.745  16.043  1.00  0.00     0.124 C 
ENDBRANCH   4  15
TORSDOF 2
ENDMDL
MODEL 8
REMARK VINA RESULT:      -4.9      2.629      7.790
REMARK  2 active torsions:
REMARK  status: ('A' for Active; 'I' for Inactive)
REMARK       I    between atoms: N_2  and  C_3 
REMARK       I    between atoms: C_3  and  N_5 
REMARK    1  A    between atoms: N_5  and  C_6 
REMARK    2  A    between atoms: C_9  and  N_13 
ROOT
HETATM    1  C   UNL     1     -41.150 -47.069  10.813  1.00  0.00     0.051 A 
HETATM    2  C   UNL     1     -40.048 -46.233  10.867  1.00  0.00     0.035 A 
HETATM    3  C   UNL     1     -40.215 -44.873  11.140  1.00  0.00     0.051 A 
HETATM    4  C   UNL     1     -41.485 -44.347  11.368  1.00  0.00     0.103 A 
HETATM    5  N   UNL     1     -42.573 -45.143  11.258  1.00  0.00    -0.350 N 
ATOM      6  HN  UNL     1     -43.512 -44.761  11.377  1.00  0.00     0.166 HD
HETATM    7  C   UNL     1     -42.390 -46.464  10.987  1.00  0.00     0.119 A 
ENDROOT
BRANCH   1   8
HETATM    8  N   UNL     1     -41.057 -48.460  10.582  1.00  0.00    -0.308 N 
HETATM    9  C   UNL     1     -41.100 -49.426  11.566  1.00  0.00     0.320 C 
HETATM   10  N   UNL     1     -40.895 -50.689  11.045  1.00  0.00    -0.347 N 
HETATM   11  O   UNL     1     -41.319 -49.242  12.756  1.00  0.00    -0.247 OA
HETATM   12  C   UNL     1     -40.908 -51.807  11.960  1.00  0.00     0.151 C 
HETATM   13  H   UNL     1     -40.240 -50.736  10.279  1.00  0.00     0.163 HD
HETATM   14  H   UNL     1     -41.234 -48.789   9.644  1.00  0.00     0.170 HD
ENDBRANCH   1   8
BRANCH   4  15
HETATM   15  N   UNL     1     -41.663 -43.019  11.695  1.00  0.00    -0.367 N 
HETATM   16  C   UNL     1     -40.523 -42.221  12.131  1.00  0.00     0.124 C 
HETATM   17  C   UNL     1     -40.959 -40.771  11.918  1.00  0.00     0.021 C 
HETATM   18  C   UNL     1     -42.083 -40.854  10.899  1.00  0.00     0.021 C 
HETATM   19  C   UNL     1     -42.750 -42.189  11.202  1.00  0.00     0.124 C 
ENDBRANCH   4  15
TORSDOF 2
ENDMDL
MODEL 9
REMARK VINA RESULT:      -4.9      2.397      6.977
REMARK  2 active torsions:
REMARK  status: ('A' for Active; 'I' for Inactive)
REMARK       I    between atoms: N_2  and  C_3 
REMARK       I    between atoms: C_3  and  N_5 
REMARK    1  A    between atoms: N_5  and  C_6 
REMARK    2  A    between atoms: C_9  and  N_13 
ROOT
HETATM    1  C   UNL     1     -40.835 -49.926  11.517  1.00  0.00     0.051 A 
HETATM    2  C   UNL     1     -41.940 -49.119  11.724  1.00  0.00     0.035 A 
HETATM    3  C   UNL     1     -41.789 -47.733  11.807  1.00  0.00     0.051 A 
HETATM    4  C   UNL     1     -40.531 -47.148  11.675  1.00  0.00     0.103 A 
HETATM    5  N   UNL     1     -39.437 -47.931  11.533  1.00  0.00    -0.350 N 
ATOM      6  HN  UNL     1     -38.505 -47.518  11.482  1.00  0.00     0.166 HD
HETATM    7  C   UNL     1     -39.605 -49.279  11.459  1.00  0.00     0.119 A 
ENDROOT
BRANCH   1   8
HETATM    8  N   UNL     1     -40.913 -51.330  11.383  1.00  0.00    -0.308 N 
HETATM    9  C   UNL     1     -40.926 -52.221  12.436  1.00  0.00     0.320 C 
HETATM   10  N   UNL     1     -40.918 -53.529  11.992  1.00  0.00    -0.347 N 
HETATM   11  O   UNL     1     -40.970 -51.939  13.626  1.00  0.00    -0.247 OA
HETATM   12  C   UNL     1     -40.926 -54.580  12.984  1.00  0.00     0.151 C 
HETATM   13  H   UNL     1     -40.374 -53.696  11.158  1.00  0.00     0.163 HD
HETATM   14  H   UNL     1     -41.241 -51.696  10.501  1.00  0.00     0.170 HD
ENDBRANCH   1   8
BRANCH   4  15
HETATM   15  N   UNL     1     -40.371 -45.779  11.697  1.00  0.00    -0.367 N 
HETATM   16  C   UNL     1     -39.811 -45.096  10.536  1.00  0.00     0.124 C 
HETATM   17  C   UNL     1     -40.238 -43.636  10.700  1.00  0.00     0.021 C 
HETATM   18  C   UNL     1     -41.434 -43.690  11.636  1.00  0.00     0.021 C 
HETATM   19  C   UNL     1     -41.133 -44.874  12.544  1.00  0.00     0.124 C 
ENDBRANCH   4  15
TORSDOF 2
ENDMDL
