MODEL 1
REMARK VINA RESULT:      -6.4      0.000      0.000
REMARK  4 active torsions:
REMARK  status: ('A' for Active; 'I' for Inactive)
REMARK       I    between atoms: N_2  and  C_3 
REMARK    1  A    between atoms: C_3  and  C_5 
REMARK    2  A    between atoms: C_5  and  C_6 
REMARK    3  A    between atoms: C_10  and  C_11 
REMARK    4  A    between atoms: C_11  and  C_12 
ROOT
HETATM    1  C   UNL     1     -39.898 -51.188  12.460  1.00  0.00     0.112 A 
HETATM    2  N   UNL     1     -40.628 -51.288  11.342  1.00  0.00    -0.247 N 
ATOM      3  HN  UNL     1     -40.535 -50.756  10.476  1.00  0.00     0.196 HD
HETATM    4  O   UNL     1     -41.544 -52.293  11.644  1.00  0.00    -0.223 OA
HETATM    5  C   UNL     1     -41.271 -52.701  12.918  1.00  0.00     0.148 A 
HETATM    6  N   UNL     1     -40.255 -52.066  13.462  1.00  0.00    -0.326 N 
ATOM      7  HN  UNL     1     -39.840 -52.190  14.386  1.00  0.00     0.169 HD
ENDROOT
BRANCH   5   8
HETATM    8  C   UNL     1     -42.094 -53.824  13.442  1.00  0.00     0.091 C 
BRANCH   8   9
HETATM    9  C   UNL     1     -43.623 -53.600  13.385  1.00  0.00    -0.007 C 
HETATM   10  C   UNL     1     -44.012 -52.174  13.826  1.00  0.00     0.005 C 
HETATM   11  C   UNL     1     -45.418 -51.765  13.384  1.00  0.00     0.000 C 
HETATM   12  C   UNL     1     -46.543 -52.162  14.333  1.00  0.00     0.000 C 
HETATM   13  C   UNL     1     -46.418 -53.520  15.014  1.00  0.00     0.000 C 
HETATM   14  C   UNL     1     -45.892 -54.632  14.114  1.00  0.00     0.000 C 
HETATM   15  C   UNL     1     -44.365 -54.726  14.125  1.00  0.00     0.005 C 
ENDBRANCH   8   9
ENDBRANCH   5   8
BRANCH   1  16
HETATM   16  C   UNL     1     -38.734 -50.277  12.563  1.00  0.00     0.181 C 
BRANCH  16  17
HETATM   17  C   UNL     1     -37.594 -50.725  11.678  1.00  0.00     0.224 C 
HETATM   18  N   UNL     1     -37.446 -49.994  10.515  1.00  0.00    -0.365 N 
HETATM   19  C   UNL     1     -36.436 -50.344   9.549  1.00  0.00     0.149 C 
HETATM   20  H   UNL     1     -38.218 -49.404  10.222  1.00  0.00     0.161 HD
HETATM   21  O   UNL     1     -36.826 -51.627  12.001  1.00  0.00    -0.273 OA
ENDBRANCH  16  17
ENDBRANCH   1  16
TORSDOF 4
ENDMDL
MODEL 2
REMARK VINA RESULT:      -6.4      2.970      3.709
REMARK  4 active torsions:
REMARK  status: ('A' for Active; 'I' for Inactive)
REMARK       I    between atoms: N_2  and  C_3 
REMARK    1  A    between atoms: C_3  and  C_5 
REMARK    2  A    between atoms: C_5  and  C_6 
REMARK    3  A    between atoms: C_10  and  C_11 
REMARK    4  A    between atoms: C_11  and  C_12 
ROOT
HETATM    1  C   UNL     1     -41.431 -49.559  11.347  1.00  0.00     0.112 A 
HETATM    2  N   UNL     1     -40.524 -50.474  10.983  1.00  0.00    -0.247 N 
ATOM      3  HN  UNL     1     -39.790 -50.392  10.279  1.00  0.00     0.196 HD
HETATM    4  O   UNL     1     -40.821 -51.565  11.796  1.00  0.00    -0.223 OA
HETATM    5  C   UNL     1     -41.881 -51.194  12.575  1.00  0.00     0.148 A 
HETATM    6  N   UNL     1     -42.286 -49.963  12.352  1.00  0.00    -0.326 N 
ATOM      7  HN  UNL     1     -43.037 -49.441  12.805  1.00  0.00     0.169 HD
ENDROOT
BRANCH   5   8
HETATM    8  C   UNL     1     -42.341 -52.191  13.579  1.00  0.00     0.091 C 
BRANCH   8   9
HETATM    9  C   UNL     1     -43.841 -52.562  13.495  1.00  0.00    -0.007 C 
HETATM   10  C   UNL     1     -44.711 -51.643  14.376  1.00  0.00     0.005 C 
HETATM   11  C   UNL     1     -46.194 -51.675  14.005  1.00  0.00     0.000 C 
HETATM   12  C   UNL     1     -47.012 -52.775  14.674  1.00  0.00     0.000 C 
HETATM   13  C   UNL     1     -46.329 -54.127  14.847  1.00  0.00     0.000 C 
HETATM   14  C   UNL     1     -45.486 -54.565  13.655  1.00  0.00     0.000 C 
HETATM   15  C   UNL     1     -44.042 -54.067  13.742  1.00  0.00     0.005 C 
ENDBRANCH   8   9
ENDBRANCH   5   8
BRANCH   1  16
HETATM   16  C   UNL     1     -41.440 -48.189  10.784  1.00  0.00     0.181 C 
BRANCH  16  17
HETATM   17  C   UNL     1     -42.752 -47.872  10.104  1.00  0.00     0.224 C 
HETATM   18  N   UNL     1     -42.759 -48.078   8.739  1.00  0.00    -0.365 N 
HETATM   19  C   UNL     1     -43.925 -47.764   7.952  1.00  0.00     0.149 C 
HETATM   20  H   UNL     1     -41.866 -48.180   8.268  1.00  0.00     0.161 HD
HETATM   21  O   UNL     1     -43.748 -47.518  10.730  1.00  0.00    -0.273 OA
ENDBRANCH  16  17
ENDBRANCH   1  16
TORSDOF 4
ENDMDL
MODEL 3
REMARK VINA RESULT:      -6.3      3.333      4.126
REMARK  4 active torsions:
REMARK  status: ('A' for Active; 'I' for Inactive)
REMARK       I    between atoms: N_2  and  C_3 
REMARK    1  A    between atoms: C_3  and  C_5 
REMARK    2  A    between atoms: C_5  and  C_6 
REMARK    3  A    between atoms: C_10  and  C_11 
REMARK    4  A    between atoms: C_11  and  C_12 
ROOT
HETATM    1  C   UNL     1     -41.379 -49.045  11.186  1.00  0.00     0.112 A 
HETATM    2  N   UNL     1     -40.497 -50.009  10.894  1.00  0.00    -0.247 N 
ATOM      3  HN  UNL     1     -39.678 -49.955  10.288  1.00  0.00     0.196 HD
HETATM    4  O   UNL     1     -40.967 -51.105  11.615  1.00  0.00    -0.223 OA
HETATM    5  C   UNL     1     -42.088 -50.687  12.274  1.00  0.00     0.148 A 
HETATM    6  N   UNL     1     -42.378 -49.422  12.059  1.00  0.00    -0.326 N 
ATOM      7  HN  UNL     1     -43.143 -48.865  12.440  1.00  0.00     0.169 HD
ENDROOT
BRANCH   5   8
HETATM    8  C   UNL     1     -42.736 -51.683  13.168  1.00  0.00     0.091 C 
BRANCH   8   9
HETATM    9  C   UNL     1     -44.047 -51.209  13.839  1.00  0.00    -0.007 C 
HETATM   10  C   UNL     1     -44.004 -51.380  15.371  1.00  0.00     0.005 C 
HETATM   11  C   UNL     1     -45.056 -50.547  16.103  1.00  0.00     0.000 C 
HETATM   12  C   UNL     1     -46.422 -51.209  16.258  1.00  0.00     0.000 C 
HETATM   13  C   UNL     1     -46.917 -52.040  15.080  1.00  0.00     0.000 C 
HETATM   14  C   UNL     1     -46.631 -51.431  13.713  1.00  0.00     0.000 C 
HETATM   15  C   UNL     1     -45.269 -51.847  13.156  1.00  0.00     0.005 C 
ENDBRANCH   8   9
ENDBRANCH   5   8
BRANCH   1  16
HETATM   16  C   UNL     1     -41.225 -47.658  10.688  1.00  0.00     0.181 C 
BRANCH  16  17
HETATM   17  C   UNL     1     -42.406 -47.232   9.846  1.00  0.00     0.224 C 
HETATM   18  N   UNL     1     -42.720 -48.095   8.814  1.00  0.00    -0.365 N 
HETATM   19  C   UNL     1     -43.787 -47.788   7.896  1.00  0.00     0.149 C 
HETATM   20  H   UNL     1     -42.028 -48.787   8.545  1.00  0.00     0.161 HD
HETATM   21  O   UNL     1     -43.068 -46.229  10.100  1.00  0.00    -0.273 OA
ENDBRANCH  16  17
ENDBRANCH   1  16
TORSDOF 4
ENDMDL
MODEL 4
REMARK VINA RESULT:      -6.2      4.285      5.574
REMARK  4 active torsions:
REMARK  status: ('A' for Active; 'I' for Inactive)
REMARK       I    between atoms: N_2  and  C_3 
REMARK    1  A    between atoms: C_3  and  C_5 
REMARK    2  A    between atoms: C_5  and  C_6 
REMARK    3  A    between atoms: C_10  and  C_11 
REMARK    4  A    between atoms: C_11  and  C_12 
ROOT
HETATM    1  C   UNL     1     -43.082 -47.369  11.157  1.00  0.00     0.112 A 
HETATM    2  N   UNL     1     -43.114 -46.567  12.230  1.00  0.00    -0.247 N 
ATOM      3  HN  UNL     1     -43.123 -45.547  12.257  1.00  0.00     0.196 HD
HETATM    4  O   UNL     1     -43.130 -47.460  13.299  1.00  0.00    -0.223 OA
HETATM    5  C   UNL     1     -43.109 -48.715  12.760  1.00  0.00     0.148 A 
HETATM    6  N   UNL     1     -43.098 -48.718  11.445  1.00  0.00    -0.326 N 
ATOM      7  HN  UNL     1     -43.099 -49.511  10.804  1.00  0.00     0.169 HD
ENDROOT
BRANCH   5   8
HETATM    8  C   UNL     1     -43.184 -49.847  13.723  1.00  0.00     0.091 C 
BRANCH   8   9
HETATM    9  C   UNL     1     -44.317 -50.865  13.453  1.00  0.00    -0.007 C 
HETATM   10  C   UNL     1     -45.265 -51.003  14.660  1.00  0.00     0.005 C 
HETATM   11  C   UNL     1     -46.610 -51.639  14.305  1.00  0.00     0.000 C 
HETATM   12  C   UNL     1     -46.643 -53.163  14.345  1.00  0.00     0.000 C 
HETATM   13  C   UNL     1     -45.399 -53.889  13.844  1.00  0.00     0.000 C 
HETATM   14  C   UNL     1     -44.769 -53.276  12.600  1.00  0.00     0.000 C 
HETATM   15  C   UNL     1     -43.740 -52.193  12.933  1.00  0.00     0.005 C 
ENDBRANCH   8   9
ENDBRANCH   5   8
BRANCH   1  16
HETATM   16  C   UNL     1     -43.134 -46.838   9.775  1.00  0.00     0.181 C 
BRANCH  16  17
HETATM   17  C   UNL     1     -44.382 -47.289   9.050  1.00  0.00     0.224 C 
HETATM   18  N   UNL     1     -45.565 -46.848   9.609  1.00  0.00    -0.365 N 
HETATM   19  C   UNL     1     -46.834 -47.246   9.057  1.00  0.00     0.149 C 
HETATM   20  H   UNL     1     -45.537 -46.483  10.556  1.00  0.00     0.161 HD
HETATM   21  O   UNL     1     -44.338 -47.945   8.012  1.00  0.00    -0.273 OA
ENDBRANCH  16  17
ENDBRANCH   1  16
TORSDOF 4
ENDMDL
MODEL 5
REMARK VINA RESULT:      -6.1      3.143      4.066
REMARK  4 active torsions:
REMARK  status: ('A' for Active; 'I' for Inactive)
REMARK       I    between atoms: N_2  and  C_3 
REMARK    1  A    between atoms: C_3  and  C_5 
REMARK    2  A    between atoms: C_5  and  C_6 
REMARK    3  A    between atoms: C_10  and  C_11 
REMARK    4  A    between atoms: C_11  and  C_12 
ROOT
HETATM    1  C   UNL     1     -41.189 -49.087  11.214  1.00  0.00     0.112 A 
HETATM    2  N   UNL     1     -40.546 -50.057  10.552  1.00  0.00    -0.247 N 
ATOM      3  HN  UNL     1     -40.184 -50.039   9.598  1.00  0.00     0.196 HD
HETATM    4  O   UNL     1     -40.491 -51.097  11.477  1.00  0.00    -0.223 OA
HETATM    5  C   UNL     1     -41.107 -50.645  12.610  1.00  0.00     0.148 A 
HETATM    6  N   UNL     1     -41.540 -49.407  12.509  1.00  0.00    -0.326 N 
ATOM      7  HN  UNL     1     -42.013 -48.833  13.207  1.00  0.00     0.169 HD
ENDROOT
BRANCH   5   8
HETATM    8  C   UNL     1     -41.115 -51.574  13.771  1.00  0.00     0.091 C 
BRANCH   8   9
HETATM    9  C   UNL     1     -42.007 -52.827  13.603  1.00  0.00    -0.007 C 
HETATM   10  C   UNL     1     -43.398 -52.471  13.040  1.00  0.00     0.005 C 
HETATM   11  C   UNL     1     -44.140 -53.673  12.456  1.00  0.00     0.000 C 
HETATM   12  C   UNL     1     -44.961 -54.483  13.454  1.00  0.00     0.000 C 
HETATM   13  C   UNL     1     -44.361 -54.670  14.842  1.00  0.00     0.000 C 
HETATM   14  C   UNL     1     -42.861 -54.939  14.850  1.00  0.00     0.000 C 
HETATM   15  C   UNL     1     -42.032 -53.654  14.900  1.00  0.00     0.005 C 
ENDBRANCH   8   9
ENDBRANCH   5   8
BRANCH   1  16
HETATM   16  C   UNL     1     -41.408 -47.744  10.628  1.00  0.00     0.181 C 
BRANCH  16  17
HETATM   17  C   UNL     1     -42.720 -47.666   9.881  1.00  0.00     0.224 C 
HETATM   18  N   UNL     1     -42.641 -47.991   8.541  1.00  0.00    -0.365 N 
HETATM   19  C   UNL     1     -43.802 -47.906   7.693  1.00  0.00     0.149 C 
HETATM   20  H   UNL     1     -41.722 -48.014   8.111  1.00  0.00     0.161 HD
HETATM   21  O   UNL     1     -43.779 -47.394  10.440  1.00  0.00    -0.273 OA
ENDBRANCH  16  17
ENDBRANCH   1  16
TORSDOF 4
ENDMDL
MODEL 6
REMARK VINA RESULT:      -6.1      2.198      2.870
REMARK  4 active torsions:
REMARK  status: ('A' for Active; 'I' for Inactive)
REMARK       I    between atoms: N_2  and  C_3 
REMARK    1  A    between atoms: C_3  and  C_5 
REMARK    2  A    between atoms: C_5  and  C_6 
REMARK    3  A    between atoms: C_10  and  C_11 
REMARK    4  A    between atoms: C_11  and  C_12 
ROOT
HETATM    1  C   UNL     1     -40.603 -50.819  11.997  1.00  0.00     0.112 A 
HETATM    2  N   UNL     1     -40.396 -50.712  13.316  1.00  0.00    -0.247 N 
ATOM      3  HN  UNL     1     -39.955 -49.947  13.827  1.00  0.00     0.196 HD
HETATM    4  O   UNL     1     -40.928 -51.895  13.822  1.00  0.00    -0.223 OA
HETATM    5  C   UNL     1     -41.407 -52.598  12.753  1.00  0.00     0.148 A 
HETATM    6  N   UNL     1     -41.249 -51.974  11.606  1.00  0.00    -0.326 N 
ATOM      7  HN  UNL     1     -41.530 -52.268  10.671  1.00  0.00     0.169 HD
ENDROOT
BRANCH   5   8
HETATM    8  C   UNL     1     -42.085 -53.886  13.061  1.00  0.00     0.091 C 
BRANCH   8   9
HETATM    9  C   UNL     1     -43.630 -53.830  13.063  1.00  0.00    -0.007 C 
HETATM   10  C   UNL     1     -44.154 -52.399  13.301  1.00  0.00     0.005 C 
HETATM   11  C   UNL     1     -45.614 -52.211  12.887  1.00  0.00     0.000 C 
HETATM   12  C   UNL     1     -46.646 -52.563  13.953  1.00  0.00     0.000 C 
HETATM   13  C   UNL     1     -46.342 -53.773  14.828  1.00  0.00     0.000 C 
HETATM   14  C   UNL     1     -45.738 -54.956  14.081  1.00  0.00     0.000 C 
HETATM   15  C   UNL     1     -44.211 -54.892  14.013  1.00  0.00     0.005 C 
ENDBRANCH   8   9
ENDBRANCH   5   8
BRANCH   1  16
HETATM   16  C   UNL     1     -40.257 -49.730  11.053  1.00  0.00     0.181 C 
BRANCH  16  17
HETATM   17  C   UNL     1     -41.327 -48.663  11.015  1.00  0.00     0.224 C 
HETATM   18  N   UNL     1     -41.793 -48.360   9.751  1.00  0.00    -0.365 N 
HETATM   19  C   UNL     1     -42.774 -47.322   9.556  1.00  0.00     0.149 C 
HETATM   20  H   UNL     1     -41.245 -48.669   8.954  1.00  0.00     0.161 HD
HETATM   21  O   UNL     1     -41.785 -48.154  12.034  1.00  0.00    -0.273 OA
ENDBRANCH  16  17
ENDBRANCH   1  16
TORSDOF 4
ENDMDL
MODEL 7
REMARK VINA RESULT:      -6.1      3.026      3.351
REMARK  4 active torsions:
REMARK  status: ('A' for Active; 'I' for Inactive)
REMARK       I    between atoms: N_2  and  C_3 
REMARK    1  A    between atoms: C_3  and  C_5 
REMARK    2  A    between atoms: C_5  and  C_6 
REMARK    3  A    between atoms: C_10  and  C_11 
REMARK    4  A    between atoms: C_11  and  C_12 
ROOT
HETATM    1  C   UNL     1     -41.612 -49.158  10.959  1.00  0.00     0.112 A 
HETATM    2  N   UNL     1     -40.568 -49.969  10.747  1.00  0.00    -0.247 N 
ATOM      3  HN  UNL     1     -39.807 -49.858  10.075  1.00  0.00     0.196 HD
HETATM    4  O   UNL     1     -40.768 -51.000  11.661  1.00  0.00    -0.223 OA
HETATM    5  C   UNL     1     -41.917 -50.704  12.338  1.00  0.00     0.148 A 
HETATM    6  N   UNL     1     -42.468 -49.571  11.959  1.00  0.00    -0.326 N 
ATOM      7  HN  UNL     1     -43.311 -49.117  12.312  1.00  0.00     0.169 HD
ENDROOT
BRANCH   5   8
HETATM    8  C   UNL     1     -42.304 -51.645  13.423  1.00  0.00     0.091 C 
BRANCH   8   9
HETATM    9  C   UNL     1     -43.768 -52.142  13.370  1.00  0.00    -0.007 C 
HETATM   10  C   UNL     1     -44.687 -51.323  14.299  1.00  0.00     0.005 C 
HETATM   11  C   UNL     1     -46.172 -51.473  13.968  1.00  0.00     0.000 C 
HETATM   12  C   UNL     1     -46.873 -52.656  14.628  1.00  0.00     0.000 C 
HETATM   13  C   UNL     1     -46.073 -53.948  14.745  1.00  0.00     0.000 C 
HETATM   14  C   UNL     1     -45.231 -54.282  13.520  1.00  0.00     0.000 C 
HETATM   15  C   UNL     1     -43.833 -53.664  13.581  1.00  0.00     0.005 C 
ENDBRANCH   8   9
ENDBRANCH   5   8
BRANCH   1  16
HETATM   16  C   UNL     1     -41.768 -47.869  10.246  1.00  0.00     0.181 C 
BRANCH  16  17
HETATM   17  C   UNL     1     -40.976 -46.764  10.908  1.00  0.00     0.224 C 
HETATM   18  N   UNL     1     -40.426 -45.847  10.035  1.00  0.00    -0.365 N 
HETATM   19  C   UNL     1     -39.599 -44.772  10.521  1.00  0.00     0.149 C 
HETATM   20  H   UNL     1     -40.376 -46.096   9.052  1.00  0.00     0.161 HD
HETATM   21  O   UNL     1     -40.884 -46.662  12.129  1.00  0.00    -0.273 OA
ENDBRANCH  16  17
ENDBRANCH   1  16
TORSDOF 4
ENDMDL
MODEL 8
REMARK VINA RESULT:      -6.0      2.216      3.131
REMARK  4 active torsions:
REMARK  status: ('A' for Active; 'I' for Inactive)
REMARK       I    between atoms: N_2  and  C_3 
REMARK    1  A    between atoms: C_3  and  C_5 
REMARK    2  A    between atoms: C_5  and  C_6 
REMARK    3  A    between atoms: C_10  and  C_11 
REMARK    4  A    between atoms: C_11  and  C_12 
ROOT
HETATM    1  C   UNL     1     -40.141 -50.888  11.790  1.00  0.00     0.112 A 
HETATM    2  N   UNL     1     -39.233 -51.260  12.702  1.00  0.00    -0.247 N 
ATOM      3  HN  UNL     1     -38.384 -50.770  12.985  1.00  0.00     0.196 HD
HETATM    4  O   UNL     1     -39.726 -52.474  13.172  1.00  0.00    -0.223 OA
HETATM    5  C   UNL     1     -40.888 -52.713  12.494  1.00  0.00     0.148 A 
HETATM    6  N   UNL     1     -41.201 -51.759  11.644  1.00  0.00    -0.326 N 
ATOM      7  HN  UNL     1     -42.015 -51.684  11.034  1.00  0.00     0.169 HD
ENDROOT
BRANCH   5   8
HETATM    8  C   UNL     1     -41.635 -53.941  12.878  1.00  0.00     0.091 C 
BRANCH   8   9
HETATM    9  C   UNL     1     -42.995 -53.693  13.572  1.00  0.00    -0.007 C 
HETATM   10  C   UNL     1     -44.136 -53.505  12.551  1.00  0.00     0.005 C 
HETATM   11  C   UNL     1     -45.527 -53.692  13.157  1.00  0.00     0.000 C 
HETATM   12  C   UNL     1     -46.139 -52.445  13.787  1.00  0.00     0.000 C 
HETATM   13  C   UNL     1     -45.191 -51.526  14.546  1.00  0.00     0.000 C 
HETATM   14  C   UNL     1     -44.153 -52.250  15.395  1.00  0.00     0.000 C 
HETATM   15  C   UNL     1     -42.875 -52.570  14.616  1.00  0.00     0.005 C 
ENDBRANCH   8   9
ENDBRANCH   5   8
BRANCH   1  16
HETATM   16  C   UNL     1     -40.059 -49.592  11.078  1.00  0.00     0.181 C 
BRANCH  16  17
HETATM   17  C   UNL     1     -41.405 -48.908  11.004  1.00  0.00     0.224 C 
HETATM   18  N   UNL     1     -41.704 -48.355   9.774  1.00  0.00    -0.365 N 
HETATM   19  C   UNL     1     -42.928 -47.623   9.573  1.00  0.00     0.149 C 
HETATM   20  H   UNL     1     -40.944 -48.227   9.113  1.00  0.00     0.161 HD
HETATM   21  O   UNL     1     -42.192 -48.902  11.946  1.00  0.00    -0.273 OA
ENDBRANCH  16  17
ENDBRANCH   1  16
TORSDOF 4
ENDMDL
MODEL 9
REMARK VINA RESULT:      -5.9      2.702      3.216
REMARK  4 active torsions:
REMARK  status: ('A' for Active; 'I' for Inactive)
REMARK       I    between atoms: N_2  and  C_3 
REMARK    1  A    between atoms: C_3  and  C_5 
REMARK    2  A    between atoms: C_5  and  C_6 
REMARK    3  A    between atoms: C_10  and  C_11 
REMARK    4  A    between atoms: C_11  and  C_12 
ROOT
HETATM    1  C   UNL     1     -41.206 -49.761  11.761  1.00  0.00     0.112 A 
HETATM    2  N   UNL     1     -41.326 -49.653  13.091  1.00  0.00    -0.247 N 
ATOM      3  HN  UNL     1     -41.532 -48.820  13.641  1.00  0.00     0.196 HD
HETATM    4  O   UNL     1     -41.102 -50.952  13.542  1.00  0.00    -0.223 OA
HETATM    5  C   UNL     1     -40.871 -51.716  12.433  1.00  0.00     0.148 A 
HETATM    6  N   UNL     1     -40.941 -51.037  11.308  1.00  0.00    -0.326 N 
ATOM      7  HN  UNL     1     -40.828 -51.368  10.350  1.00  0.00     0.169 HD
ENDROOT
BRANCH   5   8
HETATM    8  C   UNL     1     -40.664 -53.170  12.666  1.00  0.00     0.091 C 
BRANCH   8   9
HETATM    9  C   UNL     1     -41.930 -53.955  13.082  1.00  0.00    -0.007 C 
HETATM   10  C   UNL     1     -43.223 -53.218  12.678  1.00  0.00     0.005 C 
HETATM   11  C   UNL     1     -44.457 -54.121  12.665  1.00  0.00     0.000 C 
HETATM   12  C   UNL     1     -45.179 -54.260  14.001  1.00  0.00     0.000 C 
HETATM   13  C   UNL     1     -44.305 -54.328  15.248  1.00  0.00     0.000 C 
HETATM   14  C   UNL     1     -43.043 -55.169  15.090  1.00  0.00     0.000 C 
HETATM   15  C   UNL     1     -41.857 -54.358  14.565  1.00  0.00     0.005 C 
ENDBRANCH   8   9
ENDBRANCH   5   8
BRANCH   1  16
HETATM   16  C   UNL     1     -41.446 -48.617  10.852  1.00  0.00     0.181 C 
BRANCH  16  17
HETATM   17  C   UNL     1     -40.495 -47.474  11.129  1.00  0.00     0.224 C 
HETATM   18  N   UNL     1     -40.651 -46.381  10.299  1.00  0.00    -0.365 N 
HETATM   19  C   UNL     1     -39.777 -45.241  10.410  1.00  0.00     0.149 C 
HETATM   20  H   UNL     1     -41.188 -46.503   9.447  1.00  0.00     0.161 HD
HETATM   21  O   UNL     1     -39.691 -47.498  12.057  1.00  0.00    -0.273 OA
ENDBRANCH  16  17
ENDBRANCH   1  16
TORSDOF 4
ENDMDL
