MODEL 1
REMARK VINA RESULT:      -6.9      0.000      0.000
REMARK  4 active torsions:
REMARK  status: ('A' for Active; 'I' for Inactive)
REMARK    1  A    between atoms: C_6  and  C_7 
REMARK    2  A    between atoms: C_7  and  N_8 
REMARK    3  A    between atoms: N_8  and  C_9 
REMARK    4  A    between atoms: C_14  and  C_17 
ROOT
HETATM    1  C   UNL     1     -42.847 -47.543   9.454  1.00  0.00     0.157 A 
HETATM    2  N   UNL     1     -42.723 -46.214   9.323  1.00  0.00    -0.343 N 
ATOM      3  HN  UNL     1     -41.822 -45.753   9.445  1.00  0.00     0.167 HD
HETATM    4  C   UNL     1     -43.828 -45.514   9.026  1.00  0.00     0.093 A 
HETATM    5  C   UNL     1     -45.060 -46.089   8.856  1.00  0.00     0.051 A 
HETATM    6  C   UNL     1     -45.113 -47.464   9.003  1.00  0.00     0.120 A 
HETATM    7  N   UNL     1     -44.003 -48.196   9.294  1.00  0.00    -0.329 N 
ATOM      8  HN  UNL     1     -44.051 -49.210   9.387  1.00  0.00     0.168 HD
ENDROOT
BRANCH   1   9
HETATM    9  N   UNL     1     -41.744 -48.307   9.791  1.00  0.00    -0.262 NA
HETATM   10  H   UNL     1     -40.917 -47.855   9.416  1.00  0.00     0.130 HD
BRANCH   9  11
HETATM   11  C   UNL     1     -41.650 -48.658  11.202  1.00  0.00     0.129 C 
BRANCH  11  12
HETATM   12  C   UNL     1     -40.404 -49.513  11.485  1.00  0.00     0.163 C 
HETATM   13  O   UNL     1     -40.720 -50.505  12.484  1.00  0.00    -0.381 OA
HETATM   14  C   UNL     1     -39.580 -51.335  12.749  1.00  0.00     0.198 C 
HETATM   15  C   UNL     1     -38.361 -50.507  13.188  1.00  0.00     0.298 C 
HETATM   16  N   UNL     1     -37.987 -49.433  12.245  1.00  0.00     0.088 N 
HETATM   17  C   UNL     1     -37.339 -49.955  11.045  1.00  0.00     0.310 C 
HETATM   18  C   UNL     1     -39.200 -48.647  11.924  1.00  0.00     0.305 C 
ENDBRANCH  11  12
ENDBRANCH   9  11
ENDBRANCH   1   9
BRANCH   6  19
HETATM   19  C   UNL     1     -46.442 -48.182   8.842  1.00  0.00     0.432 C 
HETATM   20  F   UNL     1     -46.628 -49.174   9.766  1.00  0.00    -0.165 F 
HETATM   21  F   UNL     1     -47.518 -47.356   8.982  1.00  0.00    -0.165 F 
HETATM   22  F   UNL     1     -46.584 -48.790   7.630  1.00  0.00    -0.165 F 
ENDBRANCH   6  19
TORSDOF 4
ENDMDL
MODEL 2
REMARK VINA RESULT:      -6.6      1.739      2.395
REMARK  4 active torsions:
REMARK  status: ('A' for Active; 'I' for Inactive)
REMARK    1  A    between atoms: C_6  and  C_7 
REMARK    2  A    between atoms: C_7  and  N_8 
REMARK    3  A    between atoms: N_8  and  C_9 
REMARK    4  A    between atoms: C_14  and  C_17 
ROOT
HETATM    1  C   UNL     1     -42.693 -47.598   9.562  1.00  0.00     0.157 A 
HETATM    2  N   UNL     1     -42.506 -46.274   9.459  1.00  0.00    -0.343 N 
ATOM      3  HN  UNL     1     -41.589 -45.856   9.613  1.00  0.00     0.167 HD
HETATM    4  C   UNL     1     -43.571 -45.519   9.146  1.00  0.00     0.093 A 
HETATM    5  C   UNL     1     -44.822 -46.036   8.934  1.00  0.00     0.051 A 
HETATM    6  C   UNL     1     -44.940 -47.409   9.055  1.00  0.00     0.120 A 
HETATM    7  N   UNL     1     -43.872 -48.195   9.361  1.00  0.00    -0.329 N 
ATOM      8  HN  UNL     1     -43.967 -49.208   9.434  1.00  0.00     0.168 HD
ENDROOT
BRANCH   1   9
HETATM    9  N   UNL     1     -41.634 -48.417   9.913  1.00  0.00    -0.262 NA
HETATM   10  H   UNL     1     -40.919 -48.337   9.198  1.00  0.00     0.130 HD
BRANCH   9  11
HETATM   11  C   UNL     1     -41.146 -48.238  11.275  1.00  0.00     0.129 C 
BRANCH  11  12
HETATM   12  C   UNL     1     -41.318 -49.520  12.105  1.00  0.00     0.163 C 
HETATM   13  O   UNL     1     -40.865 -50.653  11.335  1.00  0.00    -0.381 OA
HETATM   14  C   UNL     1     -40.991 -51.862  12.097  1.00  0.00     0.198 C 
HETATM   15  C   UNL     1     -42.435 -52.088  12.577  1.00  0.00     0.298 C 
HETATM   16  N   UNL     1     -43.002 -50.957  13.339  1.00  0.00     0.088 N 
HETATM   17  C   UNL     1     -42.451 -50.870  14.689  1.00  0.00     0.310 C 
HETATM   18  C   UNL     1     -42.782 -49.712  12.568  1.00  0.00     0.305 C 
ENDBRANCH  11  12
ENDBRANCH   9  11
ENDBRANCH   1   9
BRANCH   6  19
HETATM   19  C   UNL     1     -46.295 -48.063   8.847  1.00  0.00     0.432 C 
HETATM   20  F   UNL     1     -46.581 -49.011   9.792  1.00  0.00    -0.165 F 
HETATM   21  F   UNL     1     -47.332 -47.179   8.901  1.00  0.00    -0.165 F 
HETATM   22  F   UNL     1     -46.406 -48.707   7.650  1.00  0.00    -0.165 F 
ENDBRANCH   6  19
TORSDOF 4
ENDMDL
MODEL 3
REMARK VINA RESULT:      -6.5      2.371      3.371
REMARK  4 active torsions:
REMARK  status: ('A' for Active; 'I' for Inactive)
REMARK    1  A    between atoms: C_6  and  C_7 
REMARK    2  A    between atoms: C_7  and  N_8 
REMARK    3  A    between atoms: N_8  and  C_9 
REMARK    4  A    between atoms: C_14  and  C_17 
ROOT
HETATM    1  C   UNL     1     -41.060 -48.644  10.519  1.00  0.00     0.157 A 
HETATM    2  N   UNL     1     -40.385 -47.587  10.994  1.00  0.00    -0.343 N 
ATOM      3  HN  UNL     1     -39.469 -47.696  11.428  1.00  0.00     0.167 HD
HETATM    4  C   UNL     1     -40.959 -46.379  10.877  1.00  0.00     0.093 A 
HETATM    5  C   UNL     1     -42.187 -46.184  10.304  1.00  0.00     0.051 A 
HETATM    6  C   UNL     1     -42.825 -47.318   9.834  1.00  0.00     0.120 A 
HETATM    7  N   UNL     1     -42.258 -48.552   9.933  1.00  0.00    -0.329 N 
ATOM      8  HN  UNL     1     -42.731 -49.379   9.570  1.00  0.00     0.168 HD
ENDROOT
BRANCH   1   9
HETATM    9  N   UNL     1     -40.526 -49.914  10.644  1.00  0.00    -0.262 NA
HETATM   10  H   UNL     1     -40.100 -50.169   9.759  1.00  0.00     0.130 HD
BRANCH   9  11
HETATM   11  C   UNL     1     -39.664 -50.105  11.803  1.00  0.00     0.129 C 
BRANCH  11  12
HETATM   12  C   UNL     1     -40.162 -51.260  12.688  1.00  0.00     0.163 C 
HETATM   13  O   UNL     1     -39.037 -52.062  13.105  1.00  0.00    -0.381 OA
HETATM   14  C   UNL     1     -39.470 -53.134  13.954  1.00  0.00     0.198 C 
HETATM   15  C   UNL     1     -40.528 -54.015  13.266  1.00  0.00     0.298 C 
HETATM   16  N   UNL     1     -41.701 -53.272  12.764  1.00  0.00     0.088 N 
HETATM   17  C   UNL     1     -42.592 -52.854  13.843  1.00  0.00     0.310 C 
HETATM   18  C   UNL     1     -41.221 -52.122  11.963  1.00  0.00     0.305 C 
ENDBRANCH  11  12
ENDBRANCH   9  11
ENDBRANCH   1   9
BRANCH   6  19
HETATM   19  C   UNL     1     -44.198 -47.193   9.194  1.00  0.00     0.432 C 
HETATM   20  F   UNL     1     -44.340 -47.970   8.078  1.00  0.00    -0.165 F 
HETATM   21  F   UNL     1     -45.212 -47.569  10.024  1.00  0.00    -0.165 F 
HETATM   22  F   UNL     1     -44.489 -45.925   8.787  1.00  0.00    -0.165 F 
ENDBRANCH   6  19
TORSDOF 4
ENDMDL
MODEL 4
REMARK VINA RESULT:      -6.3      4.026      4.952
REMARK  4 active torsions:
REMARK  status: ('A' for Active; 'I' for Inactive)
REMARK    1  A    between atoms: C_6  and  C_7 
REMARK    2  A    between atoms: C_7  and  N_8 
REMARK    3  A    between atoms: N_8  and  C_9 
REMARK    4  A    between atoms: C_14  and  C_17 
ROOT
HETATM    1  C   UNL     1     -41.187 -48.612  10.644  1.00  0.00     0.157 A 
HETATM    2  N   UNL     1     -42.526 -48.535  10.627  1.00  0.00    -0.343 N 
ATOM      3  HN  UNL     1     -43.103 -49.375  10.607  1.00  0.00     0.167 HD
HETATM    4  C   UNL     1     -43.079 -47.313  10.636  1.00  0.00     0.093 A 
HETATM    5  C   UNL     1     -42.345 -46.156  10.659  1.00  0.00     0.051 A 
HETATM    6  C   UNL     1     -40.970 -46.310  10.678  1.00  0.00     0.120 A 
HETATM    7  N   UNL     1     -40.388 -47.541  10.680  1.00  0.00    -0.329 N 
ATOM      8  HN  UNL     1     -39.373 -47.643  10.708  1.00  0.00     0.168 HD
ENDROOT
BRANCH   1   9
HETATM    9  N   UNL     1     -40.568 -49.848  10.603  1.00  0.00    -0.262 NA
HETATM   10  H   UNL     1     -40.162 -49.971   9.681  1.00  0.00     0.130 HD
BRANCH   9  11
HETATM   11  C   UNL     1     -39.650 -50.110  11.704  1.00  0.00     0.129 C 
BRANCH  11  12
HETATM   12  C   UNL     1     -40.171 -51.235  12.612  1.00  0.00     0.163 C 
HETATM   13  O   UNL     1     -39.062 -52.047  13.053  1.00  0.00    -0.381 OA
HETATM   14  C   UNL     1     -39.518 -53.092  13.924  1.00  0.00     0.198 C 
HETATM   15  C   UNL     1     -40.587 -53.970  13.253  1.00  0.00     0.298 C 
HETATM   16  N   UNL     1     -41.745 -53.218  12.728  1.00  0.00     0.088 N 
HETATM   17  C   UNL     1     -42.633 -52.760  13.793  1.00  0.00     0.310 C 
HETATM   18  C   UNL     1     -41.243 -52.096  11.903  1.00  0.00     0.305 C 
ENDBRANCH  11  12
ENDBRANCH   9  11
ENDBRANCH   1   9
BRANCH   6  19
HETATM   19  C   UNL     1     -40.080 -45.079  10.692  1.00  0.00     0.432 C 
HETATM   20  F   UNL     1     -40.788 -43.908  10.681  1.00  0.00    -0.165 F 
HETATM   21  F   UNL     1     -39.284 -45.006  11.796  1.00  0.00    -0.165 F 
HETATM   22  F   UNL     1     -39.247 -45.003   9.616  1.00  0.00    -0.165 F 
ENDBRANCH   6  19
TORSDOF 4
ENDMDL
MODEL 5
REMARK VINA RESULT:      -6.3      5.505      7.345
REMARK  4 active torsions:
REMARK  status: ('A' for Active; 'I' for Inactive)
REMARK    1  A    between atoms: C_6  and  C_7 
REMARK    2  A    between atoms: C_7  and  N_8 
REMARK    3  A    between atoms: N_8  and  C_9 
REMARK    4  A    between atoms: C_14  and  C_17 
ROOT
HETATM    1  C   UNL     1     -41.101 -51.270  11.662  1.00  0.00     0.157 A 
HETATM    2  N   UNL     1     -41.897 -50.192  11.621  1.00  0.00    -0.343 N 
ATOM      3  HN  UNL     1     -42.909 -50.285  11.537  1.00  0.00     0.167 HD
HETATM    4  C   UNL     1     -41.314 -48.985  11.694  1.00  0.00     0.093 A 
HETATM    5  C   UNL     1     -39.960 -48.810  11.804  1.00  0.00     0.051 A 
HETATM    6  C   UNL     1     -39.200 -49.966  11.843  1.00  0.00     0.120 A 
HETATM    7  N   UNL     1     -39.771 -51.201  11.781  1.00  0.00    -0.329 N 
ATOM      8  HN  UNL     1     -39.202 -52.046  11.825  1.00  0.00     0.168 HD
ENDROOT
BRANCH   1   9
HETATM    9  N   UNL     1     -41.649 -52.535  11.559  1.00  0.00    -0.262 NA
HETATM   10  H   UNL     1     -41.251 -52.990  10.743  1.00  0.00     0.130 HD
BRANCH   9  11
HETATM   11  C   UNL     1     -41.591 -53.330  12.778  1.00  0.00     0.129 C 
BRANCH  11  12
HETATM   12  C   UNL     1     -42.975 -53.448  13.438  1.00  0.00     0.163 C 
HETATM   13  O   UNL     1     -43.024 -54.648  14.238  1.00  0.00    -0.381 OA
HETATM   14  C   UNL     1     -44.298 -54.770  14.886  1.00  0.00     0.198 C 
HETATM   15  C   UNL     1     -45.457 -54.756  13.875  1.00  0.00     0.298 C 
HETATM   16  N   UNL     1     -45.464 -53.582  12.979  1.00  0.00     0.088 N 
HETATM   17  C   UNL     1     -45.902 -52.368  13.663  1.00  0.00     0.310 C 
HETATM   18  C   UNL     1     -44.113 -53.431  12.391  1.00  0.00     0.305 C 
ENDBRANCH  11  12
ENDBRANCH   9  11
ENDBRANCH   1   9
BRANCH   6  19
HETATM   19  C   UNL     1     -37.689 -49.863  11.952  1.00  0.00     0.432 C 
HETATM   20  F   UNL     1     -37.281 -48.924  12.860  1.00  0.00    -0.165 F 
HETATM   21  F   UNL     1     -37.099 -51.026  12.351  1.00  0.00    -0.165 F 
HETATM   22  F   UNL     1     -37.086 -49.512  10.781  1.00  0.00    -0.165 F 
ENDBRANCH   6  19
TORSDOF 4
ENDMDL
MODEL 6
REMARK VINA RESULT:      -6.1      3.697      6.293
REMARK  4 active torsions:
REMARK  status: ('A' for Active; 'I' for Inactive)
REMARK    1  A    between atoms: C_6  and  C_7 
REMARK    2  A    between atoms: C_7  and  N_8 
REMARK    3  A    between atoms: N_8  and  C_9 
REMARK    4  A    between atoms: C_14  and  C_17 
ROOT
HETATM    1  C   UNL     1     -41.327 -52.332  11.869  1.00  0.00     0.157 A 
HETATM    2  N   UNL     1     -40.469 -53.164  12.478  1.00  0.00    -0.343 N 
ATOM      3  HN  UNL     1     -39.462 -53.071  12.349  1.00  0.00     0.167 HD
HETATM    4  C   UNL     1     -40.984 -54.123  13.262  1.00  0.00     0.093 A 
HETATM    5  C   UNL     1     -42.329 -54.288  13.463  1.00  0.00     0.051 A 
HETATM    6  C   UNL     1     -43.155 -53.393  12.806  1.00  0.00     0.120 A 
HETATM    7  N   UNL     1     -42.654 -52.406  12.013  1.00  0.00    -0.329 N 
ATOM      8  HN  UNL     1     -43.271 -51.743  11.544  1.00  0.00     0.168 HD
ENDROOT
BRANCH   1   9
HETATM    9  N   UNL     1     -40.848 -51.347  11.024  1.00  0.00    -0.262 NA
HETATM   10  H   UNL     1     -41.552 -51.164  10.316  1.00  0.00     0.130 HD
BRANCH   9  11
HETATM   11  C   UNL     1     -40.347 -50.155  11.695  1.00  0.00     0.129 C 
BRANCH  11  12
HETATM   12  C   UNL     1     -40.951 -48.876  11.092  1.00  0.00     0.163 C 
HETATM   13  O   UNL     1     -40.120 -47.747  11.435  1.00  0.00    -0.381 OA
HETATM   14  C   UNL     1     -40.648 -46.542  10.863  1.00  0.00     0.198 C 
HETATM   15  C   UNL     1     -42.100 -46.288  11.303  1.00  0.00     0.298 C 
HETATM   16  N   UNL     1     -43.019 -47.412  11.033  1.00  0.00     0.088 N 
HETATM   17  C   UNL     1     -43.353 -47.523   9.616  1.00  0.00     0.310 C 
HETATM   18  C   UNL     1     -42.409 -48.655  11.559  1.00  0.00     0.305 C 
ENDBRANCH  11  12
ENDBRANCH   9  11
ENDBRANCH   1   9
BRANCH   6  19
HETATM   19  C   UNL     1     -44.661 -53.512  12.964  1.00  0.00     0.432 C 
HETATM   20  F   UNL     1     -45.354 -52.903  11.953  1.00  0.00    -0.165 F 
HETATM   21  F   UNL     1     -45.099 -54.803  12.971  1.00  0.00    -0.165 F 
HETATM   22  F   UNL     1     -45.130 -52.945  14.112  1.00  0.00    -0.165 F 
ENDBRANCH   6  19
TORSDOF 4
ENDMDL
MODEL 7
REMARK VINA RESULT:      -5.9      3.864      5.620
REMARK  4 active torsions:
REMARK  status: ('A' for Active; 'I' for Inactive)
REMARK    1  A    between atoms: C_6  and  C_7 
REMARK    2  A    between atoms: C_7  and  N_8 
REMARK    3  A    between atoms: N_8  and  C_9 
REMARK    4  A    between atoms: C_14  and  C_17 
ROOT
HETATM    1  C   UNL     1     -42.392 -52.866  12.239  1.00  0.00     0.157 A 
HETATM    2  N   UNL     1     -42.091 -53.955  12.962  1.00  0.00    -0.343 N 
ATOM      3  HN  UNL     1     -41.146 -54.337  12.973  1.00  0.00     0.167 HD
HETATM    4  C   UNL     1     -43.079 -54.523  13.669  1.00  0.00     0.093 A 
HETATM    5  C   UNL     1     -44.364 -54.048  13.682  1.00  0.00     0.051 A 
HETATM    6  C   UNL     1     -44.602 -52.920  12.916  1.00  0.00     0.120 A 
HETATM    7  N   UNL     1     -43.612 -52.321  12.199  1.00  0.00    -0.329 N 
ATOM      8  HN  UNL     1     -43.796 -51.482  11.648  1.00  0.00     0.168 HD
ENDROOT
BRANCH   1   9
HETATM    9  N   UNL     1     -41.417 -52.261  11.467  1.00  0.00    -0.262 NA
HETATM   10  H   UNL     1     -41.874 -51.676  10.775  1.00  0.00     0.130 HD
BRANCH   9  11
HETATM   11  C   UNL     1     -40.367 -51.589  12.222  1.00  0.00     0.129 C 
BRANCH  11  12
HETATM   12  C   UNL     1     -40.608 -50.073  12.291  1.00  0.00     0.163 C 
HETATM   13  O   UNL     1     -41.826 -49.749  11.588  1.00  0.00    -0.381 OA
HETATM   14  C   UNL     1     -42.090 -48.341  11.659  1.00  0.00     0.198 C 
HETATM   15  C   UNL     1     -40.919 -47.512  11.104  1.00  0.00     0.298 C 
HETATM   16  N   UNL     1     -39.616 -47.808  11.735  1.00  0.00     0.088 N 
HETATM   17  C   UNL     1     -39.516 -47.250  13.081  1.00  0.00     0.310 C 
HETATM   18  C   UNL     1     -39.411 -49.274  11.724  1.00  0.00     0.305 C 
ENDBRANCH  11  12
ENDBRANCH   9  11
ENDBRANCH   1   9
BRANCH   6  19
HETATM   19  C   UNL     1     -46.002 -52.334  12.865  1.00  0.00     0.432 C 
HETATM   20  F   UNL     1     -46.040 -51.010  13.210  1.00  0.00    -0.165 F 
HETATM   21  F   UNL     1     -46.565 -52.397  11.625  1.00  0.00    -0.165 F 
HETATM   22  F   UNL     1     -46.877 -52.949  13.711  1.00  0.00    -0.165 F 
ENDBRANCH   6  19
TORSDOF 4
ENDMDL
MODEL 8
REMARK VINA RESULT:      -5.9      4.327      5.732
REMARK  4 active torsions:
REMARK  status: ('A' for Active; 'I' for Inactive)
REMARK    1  A    between atoms: C_6  and  C_7 
REMARK    2  A    between atoms: C_7  and  N_8 
REMARK    3  A    between atoms: N_8  and  C_9 
REMARK    4  A    between atoms: C_14  and  C_17 
ROOT
HETATM    1  C   UNL     1     -43.230 -52.836  12.513  1.00  0.00     0.157 A 
HETATM    2  N   UNL     1     -43.126 -54.133  12.839  1.00  0.00    -0.343 N 
ATOM      3  HN  UNL     1     -42.331 -54.693  12.533  1.00  0.00     0.167 HD
HETATM    4  C   UNL     1     -44.108 -54.667  13.581  1.00  0.00     0.093 A 
HETATM    5  C   UNL     1     -45.197 -53.955  14.012  1.00  0.00     0.051 A 
HETATM    6  C   UNL     1     -45.236 -52.623  13.641  1.00  0.00     0.120 A 
HETATM    7  N   UNL     1     -44.246 -52.058  12.897  1.00  0.00    -0.329 N 
ATOM      8  HN  UNL     1     -44.279 -51.071  12.640  1.00  0.00     0.168 HD
ENDROOT
BRANCH   1   9
HETATM    9  N   UNL     1     -42.260 -52.246  11.722  1.00  0.00    -0.262 NA
HETATM   10  H   UNL     1     -42.533 -51.285  11.547  1.00  0.00     0.130 HD
BRANCH   9  11
HETATM   11  C   UNL     1     -40.895 -52.405  12.206  1.00  0.00     0.129 C 
BRANCH  11  12
HETATM   12  C   UNL     1     -40.101 -51.094  12.084  1.00  0.00     0.163 C 
HETATM   13  O   UNL     1     -38.706 -51.353  12.347  1.00  0.00    -0.381 OA
HETATM   14  C   UNL     1     -37.937 -50.149  12.215  1.00  0.00     0.198 C 
HETATM   15  C   UNL     1     -38.455 -49.036  13.142  1.00  0.00     0.298 C 
HETATM   16  N   UNL     1     -39.891 -48.731  12.976  1.00  0.00     0.088 N 
HETATM   17  C   UNL     1     -40.158 -47.985  11.749  1.00  0.00     0.310 C 
HETATM   18  C   UNL     1     -40.651 -50.001  13.031  1.00  0.00     0.305 C 
ENDBRANCH  11  12
ENDBRANCH   9  11
ENDBRANCH   1   9
BRANCH   6  19
HETATM   19  C   UNL     1     -46.414 -51.764  14.066  1.00  0.00     0.432 C 
HETATM   20  F   UNL     1     -47.047 -51.164  13.012  1.00  0.00    -0.165 F 
HETATM   21  F   UNL     1     -47.386 -52.468  14.713  1.00  0.00    -0.165 F 
HETATM   22  F   UNL     1     -46.065 -50.743  14.901  1.00  0.00    -0.165 F 
ENDBRANCH   6  19
TORSDOF 4
ENDMDL
MODEL 9
REMARK VINA RESULT:      -5.7      4.595      6.851
REMARK  4 active torsions:
REMARK  status: ('A' for Active; 'I' for Inactive)
REMARK    1  A    between atoms: C_6  and  C_7 
REMARK    2  A    between atoms: C_7  and  N_8 
REMARK    3  A    between atoms: N_8  and  C_9 
REMARK    4  A    between atoms: C_14  and  C_17 
ROOT
HETATM    1  C   UNL     1     -41.555 -49.715  11.594  1.00  0.00     0.157 A 
HETATM    2  N   UNL     1     -41.993 -50.923  11.979  1.00  0.00    -0.343 N 
ATOM      3  HN  UNL     1     -42.984 -51.161  11.944  1.00  0.00     0.167 HD
HETATM    4  C   UNL     1     -41.080 -51.806  12.410  1.00  0.00     0.093 A 
HETATM    5  C   UNL     1     -39.740 -51.530  12.477  1.00  0.00     0.051 A 
HETATM    6  C   UNL     1     -39.359 -50.266  12.062  1.00  0.00     0.120 A 
HETATM    7  N   UNL     1     -40.267 -49.357  11.610  1.00  0.00    -0.329 N 
ATOM      8  HN  UNL     1     -39.974 -48.433  11.294  1.00  0.00     0.168 HD
ENDROOT
BRANCH   1   9
HETATM    9  N   UNL     1     -42.459 -48.758  11.171  1.00  0.00    -0.262 NA
HETATM   10  H   UNL     1     -42.742 -48.208  11.977  1.00  0.00     0.130 HD
BRANCH   9  11
HETATM   11  C   UNL     1     -42.025 -47.966  10.027  1.00  0.00     0.129 C 
BRANCH  11  12
HETATM   12  C   UNL     1     -41.656 -46.533  10.444  1.00  0.00     0.163 C 
HETATM   13  O   UNL     1     -40.243 -46.467  10.730  1.00  0.00    -0.381 OA
HETATM   14  C   UNL     1     -39.866 -45.133  11.098  1.00  0.00     0.198 C 
HETATM   15  C   UNL     1     -40.678 -44.620  12.300  1.00  0.00     0.298 C 
HETATM   16  N   UNL     1     -42.141 -44.692  12.116  1.00  0.00     0.088 N 
HETATM   17  C   UNL     1     -42.633 -43.662  11.205  1.00  0.00     0.310 C 
HETATM   18  C   UNL     1     -42.491 -46.055  11.654  1.00  0.00     0.305 C 
ENDBRANCH  11  12
ENDBRANCH   9  11
ENDBRANCH   1   9
BRANCH   6  19
HETATM   19  C   UNL     1     -37.893 -49.873  12.114  1.00  0.00     0.432 C 
HETATM   20  F   UNL     1     -37.085 -50.881  12.564  1.00  0.00    -0.165 F 
HETATM   21  F   UNL     1     -37.388 -49.525  10.896  1.00  0.00    -0.165 F 
HETATM   22  F   UNL     1     -37.646 -48.819  12.943  1.00  0.00    -0.165 F 
ENDBRANCH   6  19
TORSDOF 4
ENDMDL
