MODEL 1
REMARK VINA RESULT:      -6.2      0.000      0.000
REMARK  6 active torsions:
REMARK  status: ('A' for Active; 'I' for Inactive)
REMARK    1  A    between atoms: O_2  and  C_3 
REMARK    2  A    between atoms: C_3  and  C_4 
REMARK    3  A    between atoms: C_4  and  N_5 
REMARK    4  A    between atoms: C_6  and  C_15 
REMARK    5  A    between atoms: C_18  and  O_19 
REMARK    6  A    between atoms: C_21  and  O_22 
ROOT
HETATM    1  N   UNL     1     -41.344 -47.645  10.997  1.00  0.00    -0.329 N 
HETATM    2  C   UNL     1     -41.096 -48.509  12.058  1.00  0.00     0.119 A 
HETATM    3  N   UNL     1     -40.352 -47.887  12.962  1.00  0.00    -0.340 N 
ATOM      4  HN  UNL     1     -40.022 -48.275  13.847  1.00  0.00     0.167 HD
HETATM    5  C   UNL     1     -40.109 -46.628  12.487  1.00  0.00     0.060 A 
HETATM    6  C   UNL     1     -39.401 -45.571  13.077  1.00  0.00     0.032 A 
HETATM    7  C   UNL     1     -39.307 -44.353  12.393  1.00  0.00     0.002 A 
HETATM    8  C   UNL     1     -39.897 -44.194  11.140  1.00  0.00     0.002 A 
HETATM    9  C   UNL     1     -40.609 -45.238  10.538  1.00  0.00     0.032 A 
HETATM   10  C   UNL     1     -40.702 -46.447  11.245  1.00  0.00     0.063 A 
ENDROOT
BRANCH   2  11
HETATM   11  C   UNL     1     -41.645 -49.862  12.269  1.00  0.00     0.011 A 
HETATM   12  C   UNL     1     -42.852 -50.116  12.937  1.00  0.00     0.018 A 
HETATM   13  C   UNL     1     -43.298 -51.427  13.174  1.00  0.00     0.040 A 
HETATM   14  C   UNL     1     -42.560 -52.513  12.715  1.00  0.00     0.101 A 
HETATM   15  C   UNL     1     -41.387 -52.262  11.998  1.00  0.00     0.099 A 
HETATM   16  C   UNL     1     -40.931 -50.964  11.772  1.00  0.00     0.054 A 
BRANCH  14  17
HETATM   17  O   UNL     1     -42.870 -53.836  12.888  1.00  0.00    -0.353 OA
HETATM   18  C   UNL     1     -44.254 -54.168  12.901  1.00  0.00     0.210 C 
ENDBRANCH  14  17
BRANCH  15  19
HETATM   19  O   UNL     1     -40.648 -53.304  11.505  1.00  0.00    -0.358 OA
HETATM   20  H   UNL     1     -40.767 -53.265  10.537  1.00  0.00     0.217 HD
ENDBRANCH  15  19
ENDBRANCH   2  11
BRANCH   1  21
HETATM   21  C   UNL     1     -42.230 -47.853   9.868  1.00  0.00     0.157 C 
BRANCH  21  22
HETATM   22  C   UNL     1     -43.671 -47.472  10.172  1.00  0.00     0.187 C 
BRANCH  22  23
HETATM   23  O   UNL     1     -44.393 -47.393   8.942  1.00  0.00    -0.394 OA
HETATM   24  C   UNL     1     -43.576 -47.791   7.845  1.00  0.00     0.201 C 
ENDBRANCH  22  23
ENDBRANCH  21  22
ENDBRANCH   1  21
TORSDOF 6
ENDMDL
MODEL 2
REMARK VINA RESULT:      -5.9      2.650      6.827
REMARK  6 active torsions:
REMARK  status: ('A' for Active; 'I' for Inactive)
REMARK    1  A    between atoms: O_2  and  C_3 
REMARK    2  A    between atoms: C_3  and  C_4 
REMARK    3  A    between atoms: C_4  and  N_5 
REMARK    4  A    between atoms: C_6  and  C_15 
REMARK    5  A    between atoms: C_18  and  O_19 
REMARK    6  A    between atoms: C_21  and  O_22 
ROOT
HETATM    1  N   UNL     1     -41.099 -50.333  11.838  1.00  0.00    -0.329 N 
HETATM    2  C   UNL     1     -42.218 -49.509  11.896  1.00  0.00     0.119 A 
HETATM    3  N   UNL     1     -43.229 -50.183  12.425  1.00  0.00    -0.340 N 
ATOM      4  HN  UNL     1     -44.171 -49.829  12.595  1.00  0.00     0.167 HD
HETATM    5  C   UNL     1     -42.773 -51.443  12.699  1.00  0.00     0.060 A 
HETATM    6  C   UNL     1     -43.440 -52.526  13.291  1.00  0.00     0.032 A 
HETATM    7  C   UNL     1     -42.744 -53.725  13.489  1.00  0.00     0.002 A 
HETATM    8  C   UNL     1     -41.413 -53.846  13.095  1.00  0.00     0.002 A 
HETATM    9  C   UNL     1     -40.732 -52.775  12.505  1.00  0.00     0.032 A 
HETATM   10  C   UNL     1     -41.444 -51.578  12.326  1.00  0.00     0.063 A 
ENDROOT
BRANCH   2  11
HETATM   11  C   UNL     1     -42.301 -48.074  11.564  1.00  0.00     0.011 A 
HETATM   12  C   UNL     1     -42.259 -47.050  12.521  1.00  0.00     0.018 A 
HETATM   13  C   UNL     1     -42.413 -45.701  12.160  1.00  0.00     0.040 A 
HETATM   14  C   UNL     1     -42.577 -45.346  10.825  1.00  0.00     0.101 A 
HETATM   15  C   UNL     1     -42.560 -46.359   9.863  1.00  0.00     0.099 A 
HETATM   16  C   UNL     1     -42.423 -47.701  10.215  1.00  0.00     0.054 A 
BRANCH  14  17
HETATM   17  O   UNL     1     -42.751 -44.077  10.339  1.00  0.00    -0.353 OA
HETATM   18  C   UNL     1     -42.851 -43.035  11.304  1.00  0.00     0.210 C 
ENDBRANCH  14  17
BRANCH  15  19
HETATM   19  O   UNL     1     -42.690 -46.047   8.536  1.00  0.00    -0.358 OA
HETATM   20  H   UNL     1     -42.227 -46.762   8.059  1.00  0.00     0.217 HD
ENDBRANCH  15  19
ENDBRANCH   2  11
BRANCH   1  21
HETATM   21  C   UNL     1     -39.743 -49.969  11.473  1.00  0.00     0.157 C 
BRANCH  21  22
HETATM   22  C   UNL     1     -38.996 -49.277  12.603  1.00  0.00     0.187 C 
BRANCH  22  23
HETATM   23  O   UNL     1     -37.595 -49.489  12.422  1.00  0.00    -0.394 OA
HETATM   24  C   UNL     1     -37.320 -50.001  11.122  1.00  0.00     0.201 C 
ENDBRANCH  22  23
ENDBRANCH  21  22
ENDBRANCH   1  21
TORSDOF 6
ENDMDL
MODEL 3
REMARK VINA RESULT:      -5.7      3.662      6.767
REMARK  6 active torsions:
REMARK  status: ('A' for Active; 'I' for Inactive)
REMARK    1  A    between atoms: O_2  and  C_3 
REMARK    2  A    between atoms: C_3  and  C_4 
REMARK    3  A    between atoms: C_4  and  N_5 
REMARK    4  A    between atoms: C_6  and  C_15 
REMARK    5  A    between atoms: C_18  and  O_19 
REMARK    6  A    between atoms: C_21  and  O_22 
ROOT
HETATM    1  N   UNL     1     -44.492 -51.363  13.909  1.00  0.00    -0.329 N 
HETATM    2  C   UNL     1     -43.372 -50.643  14.311  1.00  0.00     0.119 A 
HETATM    3  N   UNL     1     -43.592 -50.130  15.514  1.00  0.00    -0.340 N 
ATOM      4  HN  UNL     1     -42.942 -49.561  16.058  1.00  0.00     0.167 HD
HETATM    5  C   UNL     1     -44.852 -50.506  15.888  1.00  0.00     0.060 A 
HETATM    6  C   UNL     1     -45.544 -50.249  17.081  1.00  0.00     0.032 A 
HETATM    7  C   UNL     1     -46.836 -50.766  17.240  1.00  0.00     0.002 A 
HETATM    8  C   UNL     1     -47.430 -51.516  16.227  1.00  0.00     0.002 A 
HETATM    9  C   UNL     1     -46.752 -51.783  15.031  1.00  0.00     0.032 A 
HETATM   10  C   UNL     1     -45.454 -51.266  14.896  1.00  0.00     0.063 A 
ENDROOT
BRANCH   2  11
HETATM   11  C   UNL     1     -42.073 -50.534  13.621  1.00  0.00     0.011 A 
HETATM   12  C   UNL     1     -40.847 -50.870  14.213  1.00  0.00     0.018 A 
HETATM   13  C   UNL     1     -39.629 -50.682  13.538  1.00  0.00     0.040 A 
HETATM   14  C   UNL     1     -39.618 -50.186  12.238  1.00  0.00     0.101 A 
HETATM   15  C   UNL     1     -40.841 -49.906  11.624  1.00  0.00     0.099 A 
HETATM   16  C   UNL     1     -42.052 -50.075  12.294  1.00  0.00     0.054 A 
BRANCH  14  17
HETATM   17  O   UNL     1     -38.507 -49.942  11.473  1.00  0.00    -0.353 OA
HETATM   18  C   UNL     1     -37.336 -50.682  11.800  1.00  0.00     0.210 C 
ENDBRANCH  14  17
BRANCH  15  19
HETATM   19  O   UNL     1     -40.871 -49.442  10.335  1.00  0.00    -0.358 OA
HETATM   20  H   UNL     1     -41.631 -48.829  10.304  1.00  0.00     0.217 HD
ENDBRANCH  15  19
ENDBRANCH   2  11
BRANCH   1  21
HETATM   21  C   UNL     1     -44.636 -52.206  12.738  1.00  0.00     0.157 C 
BRANCH  21  22
HETATM   22  C   UNL     1     -44.021 -53.585  12.927  1.00  0.00     0.187 C 
BRANCH  22  23
HETATM   23  O   UNL     1     -45.012 -54.572  12.635  1.00  0.00    -0.394 OA
HETATM   24  C   UNL     1     -45.553 -55.120  13.832  1.00  0.00     0.201 C 
ENDBRANCH  22  23
ENDBRANCH  21  22
ENDBRANCH   1  21
TORSDOF 6
ENDMDL
MODEL 4
REMARK VINA RESULT:      -5.6      3.176      7.389
REMARK  6 active torsions:
REMARK  status: ('A' for Active; 'I' for Inactive)
REMARK    1  A    between atoms: O_2  and  C_3 
REMARK    2  A    between atoms: C_3  and  C_4 
REMARK    3  A    between atoms: C_4  and  N_5 
REMARK    4  A    between atoms: C_6  and  C_15 
REMARK    5  A    between atoms: C_18  and  O_19 
REMARK    6  A    between atoms: C_21  and  O_22 
ROOT
HETATM    1  N   UNL     1     -42.620 -53.154  14.560  1.00  0.00    -0.329 N 
HETATM    2  C   UNL     1     -41.597 -52.285  14.193  1.00  0.00     0.119 A 
HETATM    3  N   UNL     1     -40.444 -52.747  14.655  1.00  0.00    -0.340 N 
ATOM      4  HN  UNL     1     -39.526 -52.319  14.531  1.00  0.00     0.167 HD
HETATM    5  C   UNL     1     -40.716 -53.906  15.329  1.00  0.00     0.060 A 
HETATM    6  C   UNL     1     -39.840 -54.792  15.973  1.00  0.00     0.032 A 
HETATM    7  C   UNL     1     -40.363 -55.939  16.583  1.00  0.00     0.002 A 
HETATM    8  C   UNL     1     -41.733 -56.193  16.562  1.00  0.00     0.002 A 
HETATM    9  C   UNL     1     -42.620 -55.320  15.922  1.00  0.00     0.032 A 
HETATM   10  C   UNL     1     -42.076 -54.182  15.305  1.00  0.00     0.063 A 
ENDROOT
BRANCH   2  11
HETATM   11  C   UNL     1     -41.691 -51.097  13.323  1.00  0.00     0.011 A 
HETATM   12  C   UNL     1     -42.526 -50.002  13.590  1.00  0.00     0.018 A 
HETATM   13  C   UNL     1     -42.632 -48.924  12.695  1.00  0.00     0.040 A 
HETATM   14  C   UNL     1     -41.875 -48.905  11.528  1.00  0.00     0.101 A 
HETATM   15  C   UNL     1     -40.998 -49.966  11.289  1.00  0.00     0.099 A 
HETATM   16  C   UNL     1     -40.899 -51.046  12.165  1.00  0.00     0.054 A 
BRANCH  14  17
HETATM   17  O   UNL     1     -41.892 -47.929  10.566  1.00  0.00    -0.353 OA
HETATM   18  C   UNL     1     -41.231 -46.710  10.887  1.00  0.00     0.210 C 
ENDBRANCH  14  17
BRANCH  15  19
HETATM   19  O   UNL     1     -40.216 -49.969  10.164  1.00  0.00    -0.358 OA
HETATM   20  H   UNL     1     -39.318 -50.188  10.480  1.00  0.00     0.217 HD
ENDBRANCH  15  19
ENDBRANCH   2  11
BRANCH   1  21
HETATM   21  C   UNL     1     -44.009 -53.120  14.147  1.00  0.00     0.157 C 
BRANCH  21  22
HETATM   22  C   UNL     1     -44.227 -53.722  12.767  1.00  0.00     0.187 C 
BRANCH  22  23
HETATM   23  O   UNL     1     -45.172 -54.787  12.876  1.00  0.00    -0.394 OA
HETATM   24  C   UNL     1     -45.832 -54.756  14.137  1.00  0.00     0.201 C 
ENDBRANCH  22  23
ENDBRANCH  21  22
ENDBRANCH   1  21
TORSDOF 6
ENDMDL
MODEL 5
REMARK VINA RESULT:      -5.5      2.473      7.399
REMARK  6 active torsions:
REMARK  status: ('A' for Active; 'I' for Inactive)
REMARK    1  A    between atoms: O_2  and  C_3 
REMARK    2  A    between atoms: C_3  and  C_4 
REMARK    3  A    between atoms: C_4  and  N_5 
REMARK    4  A    between atoms: C_6  and  C_15 
REMARK    5  A    between atoms: C_18  and  O_19 
REMARK    6  A    between atoms: C_21  and  O_22 
ROOT
HETATM    1  N   UNL     1     -42.455 -51.798  13.677  1.00  0.00    -0.329 N 
HETATM    2  C   UNL     1     -43.181 -50.767  13.089  1.00  0.00     0.119 A 
HETATM    3  N   UNL     1     -44.413 -51.187  12.840  1.00  0.00    -0.340 N 
ATOM      4  HN  UNL     1     -45.166 -50.642  12.418  1.00  0.00     0.167 HD
HETATM    5  C   UNL     1     -44.486 -52.488  13.255  1.00  0.00     0.060 A 
HETATM    6  C   UNL     1     -45.576 -53.371  13.242  1.00  0.00     0.032 A 
HETATM    7  C   UNL     1     -45.407 -54.665  13.748  1.00  0.00     0.002 A 
HETATM    8  C   UNL     1     -44.173 -55.077  14.248  1.00  0.00     0.002 A 
HETATM    9  C   UNL     1     -43.075 -54.208  14.270  1.00  0.00     0.032 A 
HETATM   10  C   UNL     1     -43.269 -52.910  13.770  1.00  0.00     0.063 A 
ENDROOT
BRANCH   2  11
HETATM   11  C   UNL     1     -42.752 -49.372  12.868  1.00  0.00     0.011 A 
HETATM   12  C   UNL     1     -42.942 -48.343  13.802  1.00  0.00     0.018 A 
HETATM   13  C   UNL     1     -42.579 -47.017  13.516  1.00  0.00     0.040 A 
HETATM   14  C   UNL     1     -41.984 -46.699  12.300  1.00  0.00     0.101 A 
HETATM   15  C   UNL     1     -41.739 -47.732  11.392  1.00  0.00     0.099 A 
HETATM   16  C   UNL     1     -42.110 -49.048  11.662  1.00  0.00     0.054 A 
BRANCH  14  17
HETATM   17  O   UNL     1     -41.595 -45.451  11.888  1.00  0.00    -0.353 OA
HETATM   18  C   UNL     1     -40.444 -44.903  12.521  1.00  0.00     0.210 C 
ENDBRANCH  14  17
BRANCH  15  19
HETATM   19  O   UNL     1     -41.129 -47.463  10.195  1.00  0.00    -0.358 OA
HETATM   20  H   UNL     1     -40.180 -47.635  10.349  1.00  0.00     0.217 HD
ENDBRANCH  15  19
ENDBRANCH   2  11
BRANCH   1  21
HETATM   21  C   UNL     1     -41.123 -51.737  14.246  1.00  0.00     0.157 C 
BRANCH  21  22
HETATM   22  C   UNL     1     -40.029 -51.922  13.205  1.00  0.00     0.187 C 
BRANCH  22  23
HETATM   23  O   UNL     1     -39.861 -53.320  12.962  1.00  0.00    -0.394 OA
HETATM   24  C   UNL     1     -39.310 -53.973  14.101  1.00  0.00     0.201 C 
ENDBRANCH  22  23
ENDBRANCH  21  22
ENDBRANCH   1  21
TORSDOF 6
ENDMDL
MODEL 6
REMARK VINA RESULT:      -5.5      3.000      6.143
REMARK  6 active torsions:
REMARK  status: ('A' for Active; 'I' for Inactive)
REMARK    1  A    between atoms: O_2  and  C_3 
REMARK    2  A    between atoms: C_3  and  C_4 
REMARK    3  A    between atoms: C_4  and  N_5 
REMARK    4  A    between atoms: C_6  and  C_15 
REMARK    5  A    between atoms: C_18  and  O_19 
REMARK    6  A    between atoms: C_21  and  O_22 
ROOT
HETATM    1  N   UNL     1     -38.931 -49.130  13.132  1.00  0.00    -0.329 N 
HETATM    2  C   UNL     1     -39.459 -47.843  13.137  1.00  0.00     0.119 A 
HETATM    3  N   UNL     1     -38.908 -47.149  14.123  1.00  0.00    -0.340 N 
ATOM      4  HN  UNL     1     -39.100 -46.175  14.360  1.00  0.00     0.167 HD
HETATM    5  C   UNL     1     -38.034 -47.984  14.763  1.00  0.00     0.060 A 
HETATM    6  C   UNL     1     -37.182 -47.725  15.847  1.00  0.00     0.032 A 
HETATM    7  C   UNL     1     -36.354 -48.751  16.318  1.00  0.00     0.002 A 
HETATM    8  C   UNL     1     -36.380 -50.013  15.727  1.00  0.00     0.002 A 
HETATM    9  C   UNL     1     -37.222 -50.287  14.643  1.00  0.00     0.032 A 
HETATM   10  C   UNL     1     -38.037 -49.242  14.178  1.00  0.00     0.063 A 
ENDROOT
BRANCH   2  11
HETATM   11  C   UNL     1     -40.384 -47.242  12.157  1.00  0.00     0.011 A 
HETATM   12  C   UNL     1     -41.750 -47.553  12.085  1.00  0.00     0.018 A 
HETATM   13  C   UNL     1     -42.576 -47.007  11.089  1.00  0.00     0.040 A 
HETATM   14  C   UNL     1     -42.057 -46.108  10.163  1.00  0.00     0.101 A 
HETATM   15  C   UNL     1     -40.711 -45.750  10.269  1.00  0.00     0.099 A 
HETATM   16  C   UNL     1     -39.882 -46.300  11.246  1.00  0.00     0.054 A 
BRANCH  14  17
HETATM   17  O   UNL     1     -42.744 -45.514   9.137  1.00  0.00    -0.353 OA
HETATM   18  C   UNL     1     -44.089 -45.936   8.945  1.00  0.00     0.210 C 
ENDBRANCH  14  17
BRANCH  15  19
HETATM   19  O   UNL     1     -40.170 -44.846   9.393  1.00  0.00    -0.358 OA
HETATM   20  H   UNL     1     -39.327 -45.245   9.103  1.00  0.00     0.217 HD
ENDBRANCH  15  19
ENDBRANCH   2  11
BRANCH   1  21
HETATM   21  C   UNL     1     -39.135 -50.173  12.145  1.00  0.00     0.157 C 
BRANCH  21  22
HETATM   22  C   UNL     1     -40.232 -51.150  12.539  1.00  0.00     0.187 C 
BRANCH  22  23
HETATM   23  O   UNL     1     -39.655 -52.447  12.695  1.00  0.00    -0.394 OA
HETATM   24  C   UNL     1     -39.856 -52.939  14.016  1.00  0.00     0.201 C 
ENDBRANCH  22  23
ENDBRANCH  21  22
ENDBRANCH   1  21
TORSDOF 6
ENDMDL
MODEL 7
REMARK VINA RESULT:      -5.4      3.127      6.686
REMARK  6 active torsions:
REMARK  status: ('A' for Active; 'I' for Inactive)
REMARK    1  A    between atoms: O_2  and  C_3 
REMARK    2  A    between atoms: C_3  and  C_4 
REMARK    3  A    between atoms: C_4  and  N_5 
REMARK    4  A    between atoms: C_6  and  C_15 
REMARK    5  A    between atoms: C_18  and  O_19 
REMARK    6  A    between atoms: C_21  and  O_22 
ROOT
HETATM    1  N   UNL     1     -40.182 -50.239  13.331  1.00  0.00    -0.329 N 
HETATM    2  C   UNL     1     -41.053 -50.104  12.255  1.00  0.00     0.119 A 
HETATM    3  N   UNL     1     -41.427 -51.307  11.842  1.00  0.00    -0.340 N 
ATOM      4  HN  UNL     1     -42.066 -51.512  11.074  1.00  0.00     0.167 HD
HETATM    5  C   UNL     1     -40.794 -52.220  12.639  1.00  0.00     0.060 A 
HETATM    6  C   UNL     1     -40.878 -53.620  12.634  1.00  0.00     0.032 A 
HETATM    7  C   UNL     1     -40.140 -54.347  13.576  1.00  0.00     0.002 A 
HETATM    8  C   UNL     1     -39.326 -53.693  14.499  1.00  0.00     0.002 A 
HETATM    9  C   UNL     1     -39.233 -52.296  14.519  1.00  0.00     0.032 A 
HETATM   10  C   UNL     1     -39.990 -51.585  13.574  1.00  0.00     0.063 A 
ENDROOT
BRANCH   2  11
HETATM   11  C   UNL     1     -41.612 -48.858  11.697  1.00  0.00     0.011 A 
HETATM   12  C   UNL     1     -42.977 -48.537  11.725  1.00  0.00     0.018 A 
HETATM   13  C   UNL     1     -43.470 -47.370  11.118  1.00  0.00     0.040 A 
HETATM   14  C   UNL     1     -42.598 -46.480  10.498  1.00  0.00     0.101 A 
HETATM   15  C   UNL     1     -41.231 -46.768  10.520  1.00  0.00     0.099 A 
HETATM   16  C   UNL     1     -40.737 -47.931  11.108  1.00  0.00     0.054 A 
BRANCH  14  17
HETATM   17  O   UNL     1     -42.944 -45.319   9.858  1.00  0.00    -0.353 OA
HETATM   18  C   UNL     1     -44.072 -45.382   8.993  1.00  0.00     0.210 C 
ENDBRANCH  14  17
BRANCH  15  19
HETATM   19  O   UNL     1     -40.339 -45.902   9.945  1.00  0.00    -0.358 OA
HETATM   20  H   UNL     1     -39.694 -45.696  10.650  1.00  0.00     0.217 HD
ENDBRANCH  15  19
ENDBRANCH   2  11
BRANCH   1  21
HETATM   21  C   UNL     1     -39.648 -49.193  14.182  1.00  0.00     0.157 C 
BRANCH  21  22
HETATM   22  C   UNL     1     -38.261 -48.738  13.755  1.00  0.00     0.187 C 
BRANCH  22  23
HETATM   23  O   UNL     1     -38.145 -47.335  13.996  1.00  0.00    -0.394 OA
HETATM   24  C   UNL     1     -38.974 -46.934  15.083  1.00  0.00     0.201 C 
ENDBRANCH  22  23
ENDBRANCH  21  22
ENDBRANCH   1  21
TORSDOF 6
ENDMDL
MODEL 8
REMARK VINA RESULT:      -5.4      2.076      3.445
REMARK  6 active torsions:
REMARK  status: ('A' for Active; 'I' for Inactive)
REMARK    1  A    between atoms: O_2  and  C_3 
REMARK    2  A    between atoms: C_3  and  C_4 
REMARK    3  A    between atoms: C_4  and  N_5 
REMARK    4  A    between atoms: C_6  and  C_15 
REMARK    5  A    between atoms: C_18  and  O_19 
REMARK    6  A    between atoms: C_21  and  O_22 
ROOT
HETATM    1  N   UNL     1     -40.384 -47.834  13.087  1.00  0.00    -0.329 N 
HETATM    2  C   UNL     1     -41.235 -48.573  12.272  1.00  0.00     0.119 A 
HETATM    3  N   UNL     1     -41.528 -47.864  11.190  1.00  0.00    -0.340 N 
ATOM      4  HN  UNL     1     -42.125 -48.157  10.416  1.00  0.00     0.167 HD
HETATM    5  C   UNL     1     -40.878 -46.666  11.306  1.00  0.00     0.060 A 
HETATM    6  C   UNL     1     -40.836 -45.582  10.416  1.00  0.00     0.032 A 
HETATM    7  C   UNL     1     -40.074 -44.458  10.754  1.00  0.00     0.002 A 
HETATM    8  C   UNL     1     -39.375 -44.408  11.959  1.00  0.00     0.002 A 
HETATM    9  C   UNL     1     -39.404 -45.482  12.856  1.00  0.00     0.032 A 
HETATM   10  C   UNL     1     -40.165 -46.605  12.495  1.00  0.00     0.063 A 
ENDROOT
BRANCH   2  11
HETATM   11  C   UNL     1     -41.675 -49.969  12.455  1.00  0.00     0.011 A 
HETATM   12  C   UNL     1     -42.777 -50.340  13.239  1.00  0.00     0.018 A 
HETATM   13  C   UNL     1     -43.114 -51.689  13.440  1.00  0.00     0.040 A 
HETATM   14  C   UNL     1     -42.374 -52.695  12.828  1.00  0.00     0.101 A 
HETATM   15  C   UNL     1     -41.312 -52.326  11.999  1.00  0.00     0.099 A 
HETATM   16  C   UNL     1     -40.963 -50.991  11.807  1.00  0.00     0.054 A 
BRANCH  14  17
HETATM   17  O   UNL     1     -42.584 -54.044  12.949  1.00  0.00    -0.353 OA
HETATM   18  C   UNL     1     -42.832 -54.533  14.263  1.00  0.00     0.210 C 
ENDBRANCH  14  17
BRANCH  15  19
HETATM   19  O   UNL     1     -40.578 -53.288  11.356  1.00  0.00    -0.358 OA
HETATM   20  H   UNL     1     -39.950 -53.619  12.027  1.00  0.00     0.217 HD
ENDBRANCH  15  19
ENDBRANCH   2  11
BRANCH   1  21
HETATM   21  C   UNL     1     -39.699 -48.272  14.288  1.00  0.00     0.157 C 
BRANCH  21  22
HETATM   22  C   UNL     1     -38.330 -48.870  13.999  1.00  0.00     0.187 C 
BRANCH  22  23
HETATM   23  O   UNL     1     -38.427 -50.293  14.082  1.00  0.00    -0.394 OA
HETATM   24  C   UNL     1     -39.256 -50.685  15.171  1.00  0.00     0.201 C 
ENDBRANCH  22  23
ENDBRANCH  21  22
ENDBRANCH   1  21
TORSDOF 6
ENDMDL
MODEL 9
REMARK VINA RESULT:      -5.3     15.390     18.772
REMARK  6 active torsions:
REMARK  status: ('A' for Active; 'I' for Inactive)
REMARK    1  A    between atoms: O_2  and  C_3 
REMARK    2  A    between atoms: C_3  and  C_4 
REMARK    3  A    between atoms: C_4  and  N_5 
REMARK    4  A    between atoms: C_6  and  C_15 
REMARK    5  A    between atoms: C_18  and  O_19 
REMARK    6  A    between atoms: C_21  and  O_22 
ROOT
HETATM    1  N   UNL     1     -50.604 -55.813  -3.870  1.00  0.00    -0.329 N 
HETATM    2  C   UNL     1     -49.796 -55.437  -2.802  1.00  0.00     0.119 A 
HETATM    3  N   UNL     1     -48.759 -56.259  -2.728  1.00  0.00    -0.340 N 
ATOM      4  HN  UNL     1     -48.000 -56.218  -2.047  1.00  0.00     0.167 HD
HETATM    5  C   UNL     1     -48.897 -57.173  -3.736  1.00  0.00     0.060 A 
HETATM    6  C   UNL     1     -48.053 -58.231  -4.106  1.00  0.00     0.032 A 
HETATM    7  C   UNL     1     -48.404 -59.027  -5.203  1.00  0.00     0.002 A 
HETATM    8  C   UNL     1     -49.579 -58.781  -5.912  1.00  0.00     0.002 A 
HETATM    9  C   UNL     1     -50.431 -57.728  -5.557  1.00  0.00     0.032 A 
HETATM   10  C   UNL     1     -50.055 -56.934  -4.462  1.00  0.00     0.063 A 
ENDROOT
BRANCH   2  11
HETATM   11  C   UNL     1     -49.939 -54.252  -1.935  1.00  0.00     0.011 A 
HETATM   12  C   UNL     1     -51.157 -53.840  -1.376  1.00  0.00     0.018 A 
HETATM   13  C   UNL     1     -51.256 -52.664  -0.613  1.00  0.00     0.040 A 
HETATM   14  C   UNL     1     -50.125 -51.893  -0.365  1.00  0.00     0.101 A 
HETATM   15  C   UNL     1     -48.899 -52.332  -0.871  1.00  0.00     0.099 A 
HETATM   16  C   UNL     1     -48.797 -53.490  -1.641  1.00  0.00     0.054 A 
BRANCH  14  17
HETATM   17  O   UNL     1     -50.081 -50.723   0.346  1.00  0.00    -0.353 OA
HETATM   18  C   UNL     1     -51.129 -49.791   0.101  1.00  0.00     0.210 C 
ENDBRANCH  14  17
BRANCH  15  19
HETATM   19  O   UNL     1     -47.758 -51.615  -0.624  1.00  0.00    -0.358 OA
HETATM   20  H   UNL     1     -47.351 -51.475  -1.501  1.00  0.00     0.217 HD
ENDBRANCH  15  19
ENDBRANCH   2  11
BRANCH   1  21
HETATM   21  C   UNL     1     -51.754 -55.113  -4.407  1.00  0.00     0.157 C 
BRANCH  21  22
HETATM   22  C   UNL     1     -53.057 -55.866  -4.187  1.00  0.00     0.187 C 
BRANCH  22  23
HETATM   23  O   UNL     1     -53.030 -56.458  -2.887  1.00  0.00    -0.394 OA
HETATM   24  C   UNL     1     -53.591 -57.766  -2.912  1.00  0.00     0.201 C 
ENDBRANCH  22  23
ENDBRANCH  21  22
ENDBRANCH   1  21
TORSDOF 6
ENDMDL
