MODEL 1
REMARK VINA RESULT:      -6.7      0.000      0.000
REMARK  7 active torsions:
REMARK  status: ('A' for Active; 'I' for Inactive)
REMARK    1  A    between atoms: C_2  and  C_3 
REMARK    2  A    between atoms: C_3  and  O_5 
REMARK    3  A    between atoms: C_3  and  C_6 
REMARK    4  A    between atoms: C_6  and  N_7 
REMARK    5  A    between atoms: C_12  and  N_13 
REMARK    6  A    between atoms: N_13  and  C_14 
REMARK    7  A    between atoms: C_14  and  C_15 
ROOT
HETATM    1  N   UNL     1     -41.648 -47.341  11.719  1.00  0.00    -0.324 N 
HETATM    2  C   UNL     1     -42.847 -47.993  11.578  1.00  0.00     0.185 A 
HETATM    3  N   UNL     1     -42.691 -49.295  11.443  1.00  0.00    -0.346 N 
ATOM      4  HN  UNL     1     -43.417 -50.000  11.319  1.00  0.00     0.167 HD
HETATM    5  C   UNL     1     -41.324 -49.491  11.509  1.00  0.00     0.122 A 
HETATM    6  C   UNL     1     -40.537 -50.660  11.478  1.00  0.00     0.133 A 
HETATM    7  N   UNL     1     -39.187 -50.514  11.512  1.00  0.00    -0.337 N 
ATOM      8  HN  UNL     1     -38.574 -51.327  11.447  1.00  0.00     0.168 HD
HETATM    9  C   UNL     1     -38.674 -49.271  11.636  1.00  0.00     0.183 A 
HETATM   10  N   UNL     1     -39.334 -48.107  11.745  1.00  0.00    -0.336 N 
ATOM     11  HN  UNL     1     -38.884 -47.202  11.880  1.00  0.00     0.168 HD
HETATM   12  C   UNL     1     -40.659 -48.286  11.653  1.00  0.00     0.140 A 
ENDROOT
BRANCH   6  13
HETATM   13  N   UNL     1     -41.125 -51.918  11.470  1.00  0.00    -0.370 N 
HETATM   14  H   UNL     1     -41.102 -52.337  10.545  1.00  0.00     0.161 HD
BRANCH  13  15
HETATM   15  C   UNL     1     -40.827 -52.801  12.577  1.00  0.00     0.160 C 
BRANCH  15  16
HETATM   16  C   UNL     1     -42.118 -53.423  13.059  1.00  0.00    -0.041 A 
HETATM   17  C   UNL     1     -42.131 -54.305  14.149  1.00  0.00     0.009 A 
HETATM   18  C   UNL     1     -43.329 -54.883  14.575  1.00  0.00     0.001 A 
HETATM   19  C   UNL     1     -44.523 -54.587  13.919  1.00  0.00     0.000 A 
HETATM   20  C   UNL     1     -44.523 -53.710  12.836  1.00  0.00     0.001 A 
HETATM   21  C   UNL     1     -43.329 -53.129  12.411  1.00  0.00     0.009 A 
ENDBRANCH  15  16
ENDBRANCH  13  15
ENDBRANCH   6  13
BRANCH   1  22
HETATM   22  C   UNL     1     -41.485 -45.944  12.080  1.00  0.00     0.168 C 
BRANCH  22  23
HETATM   23  C   UNL     1     -41.287 -44.937  10.916  1.00  0.00     0.070 C 
HETATM   24  C   UNL     1     -42.194 -43.712  11.074  1.00  0.00     0.047 C 
BRANCH  23  25
HETATM   25  C   UNL     1     -39.790 -44.540  10.874  1.00  0.00     0.034 C 
HETATM   26  C   UNL     1     -39.104 -44.777   9.532  1.00  0.00     0.008 C 
ENDBRANCH  23  25
BRANCH  23  27
HETATM   27  O   UNL     1     -41.570 -45.583   9.676  1.00  0.00    -0.389 OA
HETATM   28  H   UNL     1     -40.852 -45.410   9.047  1.00  0.00     0.210 HD
ENDBRANCH  23  27
ENDBRANCH  22  23
ENDBRANCH   1  22
TORSDOF 7
ENDMDL
MODEL 2
REMARK VINA RESULT:      -6.4      2.751      7.487
REMARK  7 active torsions:
REMARK  status: ('A' for Active; 'I' for Inactive)
REMARK    1  A    between atoms: C_2  and  C_3 
REMARK    2  A    between atoms: C_3  and  O_5 
REMARK    3  A    between atoms: C_3  and  C_6 
REMARK    4  A    between atoms: C_6  and  N_7 
REMARK    5  A    between atoms: C_12  and  N_13 
REMARK    6  A    between atoms: N_13  and  C_14 
REMARK    7  A    between atoms: C_14  and  C_15 
ROOT
HETATM    1  N   UNL     1     -43.802 -52.268  14.035  1.00  0.00    -0.324 N 
HETATM    2  C   UNL     1     -43.989 -50.946  13.718  1.00  0.00     0.185 A 
HETATM    3  N   UNL     1     -43.078 -50.505  12.875  1.00  0.00    -0.346 N 
ATOM      4  HN  UNL     1     -42.989 -49.565  12.488  1.00  0.00     0.167 HD
HETATM    5  C   UNL     1     -42.269 -51.599  12.631  1.00  0.00     0.122 A 
HETATM    6  C   UNL     1     -41.157 -51.780  11.783  1.00  0.00     0.133 A 
HETATM    7  N   UNL     1     -40.533 -52.986  11.806  1.00  0.00    -0.337 N 
ATOM      8  HN  UNL     1     -39.698 -53.150  11.244  1.00  0.00     0.168 HD
HETATM    9  C   UNL     1     -41.044 -53.962  12.587  1.00  0.00     0.183 A 
HETATM   10  N   UNL     1     -42.132 -53.915  13.371  1.00  0.00    -0.336 N 
ATOM     11  HN  UNL     1     -42.491 -54.707  13.905  1.00  0.00     0.168 HD
HETATM   12  C   UNL     1     -42.688 -52.695  13.363  1.00  0.00     0.140 A 
ENDROOT
BRANCH   6  13
HETATM   13  N   UNL     1     -40.751 -50.775  10.914  1.00  0.00    -0.370 N 
HETATM   14  H   UNL     1     -41.507 -50.476  10.306  1.00  0.00     0.161 HD
BRANCH  13  15
HETATM   15  C   UNL     1     -39.915 -49.725  11.454  1.00  0.00     0.160 C 
BRANCH  15  16
HETATM   16  C   UNL     1     -40.540 -48.389  11.117  1.00  0.00    -0.041 A 
HETATM   17  C   UNL     1     -41.769 -48.316  10.446  1.00  0.00     0.009 A 
HETATM   18  C   UNL     1     -42.328 -47.076  10.130  1.00  0.00     0.001 A 
HETATM   19  C   UNL     1     -41.667 -45.899  10.479  1.00  0.00     0.000 A 
HETATM   20  C   UNL     1     -40.446 -45.959  11.148  1.00  0.00     0.001 A 
HETATM   21  C   UNL     1     -39.888 -47.196  11.468  1.00  0.00     0.009 A 
ENDBRANCH  15  16
ENDBRANCH  13  15
ENDBRANCH   6  13
BRANCH   1  22
HETATM   22  C   UNL     1     -44.736 -53.098  14.775  1.00  0.00     0.168 C 
BRANCH  22  23
HETATM   23  C   UNL     1     -45.857 -53.795  13.957  1.00  0.00     0.070 C 
HETATM   24  C   UNL     1     -45.639 -55.309  13.885  1.00  0.00     0.047 C 
BRANCH  23  25
HETATM   25  C   UNL     1     -47.217 -53.441  14.609  1.00  0.00     0.034 C 
HETATM   26  C   UNL     1     -47.209 -52.169  15.451  1.00  0.00     0.008 C 
ENDBRANCH  23  25
BRANCH  23  27
HETATM   27  O   UNL     1     -45.887 -53.254  12.637  1.00  0.00    -0.389 OA
HETATM   28  H   UNL     1     -45.135 -53.594  12.127  1.00  0.00     0.210 HD
ENDBRANCH  23  27
ENDBRANCH  22  23
ENDBRANCH   1  22
TORSDOF 7
ENDMDL
MODEL 3
REMARK VINA RESULT:      -6.4      3.118      4.391
REMARK  7 active torsions:
REMARK  status: ('A' for Active; 'I' for Inactive)
REMARK    1  A    between atoms: C_2  and  C_3 
REMARK    2  A    between atoms: C_3  and  O_5 
REMARK    3  A    between atoms: C_3  and  C_6 
REMARK    4  A    between atoms: C_6  and  N_7 
REMARK    5  A    between atoms: C_12  and  N_13 
REMARK    6  A    between atoms: N_13  and  C_14 
REMARK    7  A    between atoms: C_14  and  C_15 
ROOT
HETATM    1  N   UNL     1     -40.632 -50.258  13.353  1.00  0.00    -0.324 N 
HETATM    2  C   UNL     1     -41.737 -49.628  12.838  1.00  0.00     0.185 A 
HETATM    3  N   UNL     1     -42.630 -50.484  12.386  1.00  0.00    -0.346 N 
ATOM      4  HN  UNL     1     -43.530 -50.277  11.953  1.00  0.00     0.167 HD
HETATM    5  C   UNL     1     -42.077 -51.728  12.630  1.00  0.00     0.122 A 
HETATM    6  C   UNL     1     -42.563 -53.034  12.421  1.00  0.00     0.133 A 
HETATM    7  N   UNL     1     -41.741 -54.072  12.724  1.00  0.00    -0.337 N 
ATOM      8  HN  UNL     1     -42.031 -55.034  12.548  1.00  0.00     0.168 HD
HETATM    9  C   UNL     1     -40.533 -53.802  13.264  1.00  0.00     0.183 A 
HETATM   10  N   UNL     1     -40.007 -52.605  13.568  1.00  0.00    -0.336 N 
ATOM     11  HN  UNL     1     -39.102 -52.472  14.017  1.00  0.00     0.168 HD
HETATM   12  C   UNL     1     -40.825 -51.606  13.205  1.00  0.00     0.140 A 
ENDROOT
BRANCH   6  13
HETATM   13  N   UNL     1     -43.860 -53.250  11.973  1.00  0.00    -0.370 N 
HETATM   14  H   UNL     1     -43.893 -53.382  10.967  1.00  0.00     0.161 HD
BRANCH  13  15
HETATM   15  C   UNL     1     -44.698 -54.131  12.758  1.00  0.00     0.160 C 
BRANCH  15  16
HETATM   16  C   UNL     1     -45.506 -53.294  13.725  1.00  0.00    -0.041 A 
HETATM   17  C   UNL     1     -46.096 -52.089  13.319  1.00  0.00     0.009 A 
HETATM   18  C   UNL     1     -46.827 -51.320  14.226  1.00  0.00     0.001 A 
HETATM   19  C   UNL     1     -46.976 -51.745  15.546  1.00  0.00     0.000 A 
HETATM   20  C   UNL     1     -46.397 -52.942  15.961  1.00  0.00     0.001 A 
HETATM   21  C   UNL     1     -45.669 -53.713  15.055  1.00  0.00     0.009 A 
ENDBRANCH  15  16
ENDBRANCH  13  15
ENDBRANCH   6  13
BRANCH   1  22
HETATM   22  C   UNL     1     -39.565 -49.615  14.100  1.00  0.00     0.168 C 
BRANCH  22  23
HETATM   23  C   UNL     1     -38.414 -48.981  13.274  1.00  0.00     0.070 C 
HETATM   24  C   UNL     1     -37.519 -48.096  14.148  1.00  0.00     0.047 C 
BRANCH  23  25
HETATM   25  C   UNL     1     -37.612 -50.128  12.609  1.00  0.00     0.034 C 
HETATM   26  C   UNL     1     -37.357 -49.945  11.116  1.00  0.00     0.008 C 
ENDBRANCH  23  25
BRANCH  23  27
HETATM   27  O   UNL     1     -38.964 -48.202  12.213  1.00  0.00    -0.389 OA
HETATM   28  H   UNL     1     -38.248 -47.844  11.665  1.00  0.00     0.210 HD
ENDBRANCH  23  27
ENDBRANCH  22  23
ENDBRANCH   1  22
TORSDOF 7
ENDMDL
MODEL 4
REMARK VINA RESULT:      -6.3      1.197      1.839
REMARK  7 active torsions:
REMARK  status: ('A' for Active; 'I' for Inactive)
REMARK    1  A    between atoms: C_2  and  C_3 
REMARK    2  A    between atoms: C_3  and  O_5 
REMARK    3  A    between atoms: C_3  and  C_6 
REMARK    4  A    between atoms: C_6  and  N_7 
REMARK    5  A    between atoms: C_12  and  N_13 
REMARK    6  A    between atoms: N_13  and  C_14 
REMARK    7  A    between atoms: C_14  and  C_15 
ROOT
HETATM    1  N   UNL     1     -40.851 -47.174  10.818  1.00  0.00    -0.324 N 
HETATM    2  C   UNL     1     -42.181 -47.453  10.626  1.00  0.00     0.185 A 
HETATM    3  N   UNL     1     -42.463 -48.715  10.878  1.00  0.00    -0.346 N 
ATOM      4  HN  UNL     1     -43.370 -49.177  10.807  1.00  0.00     0.167 HD
HETATM    5  C   UNL     1     -41.258 -49.274  11.258  1.00  0.00     0.122 A 
HETATM    6  C   UNL     1     -40.915 -50.569  11.696  1.00  0.00     0.133 A 
HETATM    7  N   UNL     1     -39.606 -50.825  11.953  1.00  0.00    -0.337 N 
ATOM      8  HN  UNL     1     -39.302 -51.759  12.228  1.00  0.00     0.168 HD
HETATM    9  C   UNL     1     -38.716 -49.816  11.836  1.00  0.00     0.183 A 
HETATM   10  N   UNL     1     -38.948 -48.537  11.499  1.00  0.00    -0.336 N 
ATOM     11  HN  UNL     1     -38.233 -47.811  11.472  1.00  0.00     0.168 HD
HETATM   12  C   UNL     1     -40.241 -48.338  11.202  1.00  0.00     0.140 A 
ENDROOT
BRANCH   6  13
HETATM   13  N   UNL     1     -41.892 -51.533  11.911  1.00  0.00    -0.370 N 
HETATM   14  H   UNL     1     -42.632 -51.478  11.217  1.00  0.00     0.161 HD
BRANCH  13  15
HETATM   15  C   UNL     1     -41.449 -52.864  12.265  1.00  0.00     0.160 C 
BRANCH  15  16
HETATM   16  C   UNL     1     -42.586 -53.582  12.958  1.00  0.00    -0.041 A 
HETATM   17  C   UNL     1     -43.898 -53.497  12.471  1.00  0.00     0.009 A 
HETATM   18  C   UNL     1     -44.939 -54.155  13.128  1.00  0.00     0.001 A 
HETATM   19  C   UNL     1     -44.683 -54.903  14.276  1.00  0.00     0.000 A 
HETATM   20  C   UNL     1     -43.383 -54.997  14.769  1.00  0.00     0.001 A 
HETATM   21  C   UNL     1     -42.341 -54.345  14.112  1.00  0.00     0.009 A 
ENDBRANCH  15  16
ENDBRANCH  13  15
ENDBRANCH   6  13
BRANCH   1  22
HETATM   22  C   UNL     1     -40.258 -45.848  10.816  1.00  0.00     0.168 C 
BRANCH  22  23
HETATM   23  C   UNL     1     -40.449 -44.992  12.097  1.00  0.00     0.070 C 
HETATM   24  C   UNL     1     -39.112 -44.451  12.615  1.00  0.00     0.047 C 
BRANCH  23  25
HETATM   25  C   UNL     1     -41.441 -43.849  11.768  1.00  0.00     0.034 C 
HETATM   26  C   UNL     1     -40.802 -42.470  11.628  1.00  0.00     0.008 C 
ENDBRANCH  23  25
BRANCH  23  27
HETATM   27  O   UNL     1     -41.066 -45.785  13.110  1.00  0.00    -0.389 OA
HETATM   28  H   UNL     1     -41.295 -45.226  13.869  1.00  0.00     0.210 HD
ENDBRANCH  23  27
ENDBRANCH  22  23
ENDBRANCH   1  22
TORSDOF 7
ENDMDL
MODEL 5
REMARK VINA RESULT:      -6.0      2.075      2.447
REMARK  7 active torsions:
REMARK  status: ('A' for Active; 'I' for Inactive)
REMARK    1  A    between atoms: C_2  and  C_3 
REMARK    2  A    between atoms: C_3  and  O_5 
REMARK    3  A    between atoms: C_3  and  C_6 
REMARK    4  A    between atoms: C_6  and  N_7 
REMARK    5  A    between atoms: C_12  and  N_13 
REMARK    6  A    between atoms: N_13  and  C_14 
REMARK    7  A    between atoms: C_14  and  C_15 
ROOT
HETATM    1  N   UNL     1     -40.964 -47.004  10.681  1.00  0.00    -0.324 N 
HETATM    2  C   UNL     1     -42.229 -47.278  10.224  1.00  0.00     0.185 A 
HETATM    3  N   UNL     1     -42.641 -48.473  10.594  1.00  0.00    -0.346 N 
ATOM      4  HN  UNL     1     -43.534 -48.918  10.383  1.00  0.00     0.167 HD
HETATM    5  C   UNL     1     -41.593 -48.991  11.333  1.00  0.00     0.122 A 
HETATM    6  C   UNL     1     -41.443 -50.204  12.036  1.00  0.00     0.133 A 
HETATM    7  N   UNL     1     -40.248 -50.446  12.632  1.00  0.00    -0.337 N 
ATOM      8  HN  UNL     1     -40.075 -51.329  13.114  1.00  0.00     0.168 HD
HETATM    9  C   UNL     1     -39.293 -49.493  12.575  1.00  0.00     0.183 A 
HETATM   10  N   UNL     1     -39.359 -48.283  11.997  1.00  0.00    -0.336 N 
ATOM     11  HN  UNL     1     -38.613 -47.589  12.028  1.00  0.00     0.168 HD
HETATM   12  C   UNL     1     -40.533 -48.103  11.374  1.00  0.00     0.140 A 
ENDROOT
BRANCH   6  13
HETATM   13  N   UNL     1     -42.503 -51.094  12.159  1.00  0.00    -0.370 N 
HETATM   14  H   UNL     1     -42.588 -51.691  11.342  1.00  0.00     0.161 HD
BRANCH  13  15
HETATM   15  C   UNL     1     -42.685 -51.740  13.441  1.00  0.00     0.160 C 
BRANCH  15  16
HETATM   16  C   UNL     1     -44.132 -51.590  13.855  1.00  0.00    -0.041 A 
HETATM   17  C   UNL     1     -44.477 -51.309  15.185  1.00  0.00     0.009 A 
HETATM   18  C   UNL     1     -45.817 -51.187  15.556  1.00  0.00     0.001 A 
HETATM   19  C   UNL     1     -46.825 -51.345  14.605  1.00  0.00     0.000 A 
HETATM   20  C   UNL     1     -46.495 -51.622  13.280  1.00  0.00     0.001 A 
HETATM   21  C   UNL     1     -45.157 -51.740  12.907  1.00  0.00     0.009 A 
ENDBRANCH  15  16
ENDBRANCH  13  15
ENDBRANCH   6  13
BRANCH   1  22
HETATM   22  C   UNL     1     -40.304 -45.712  10.613  1.00  0.00     0.168 C 
BRANCH  22  23
HETATM   23  C   UNL     1     -40.521 -44.750  11.812  1.00  0.00     0.070 C 
HETATM   24  C   UNL     1     -39.242 -44.589  12.640  1.00  0.00     0.047 C 
BRANCH  23  25
HETATM   25  C   UNL     1     -41.018 -43.393  11.255  1.00  0.00     0.034 C 
HETATM   26  C   UNL     1     -40.431 -42.166  11.947  1.00  0.00     0.008 C 
ENDBRANCH  23  25
BRANCH  23  27
HETATM   27  O   UNL     1     -41.566 -45.254  12.642  1.00  0.00    -0.389 OA
HETATM   28  H   UNL     1     -41.454 -46.210  12.764  1.00  0.00     0.210 HD
ENDBRANCH  23  27
ENDBRANCH  22  23
ENDBRANCH   1  22
TORSDOF 7
ENDMDL
MODEL 6
REMARK VINA RESULT:      -5.9      2.880      4.369
REMARK  7 active torsions:
REMARK  status: ('A' for Active; 'I' for Inactive)
REMARK    1  A    between atoms: C_2  and  C_3 
REMARK    2  A    between atoms: C_3  and  O_5 
REMARK    3  A    between atoms: C_3  and  C_6 
REMARK    4  A    between atoms: C_6  and  N_7 
REMARK    5  A    between atoms: C_12  and  N_13 
REMARK    6  A    between atoms: N_13  and  C_14 
REMARK    7  A    between atoms: C_14  and  C_15 
ROOT
HETATM    1  N   UNL     1     -42.272 -45.206  12.347  1.00  0.00    -0.324 N 
HETATM    2  C   UNL     1     -41.221 -45.781  13.019  1.00  0.00     0.185 A 
HETATM    3  N   UNL     1     -40.884 -46.947  12.507  1.00  0.00    -0.346 N 
ATOM      4  HN  UNL     1     -40.145 -47.576  12.821  1.00  0.00     0.167 HD
HETATM    5  C   UNL     1     -41.754 -47.128  11.448  1.00  0.00     0.122 A 
HETATM    6  C   UNL     1     -41.868 -48.151  10.484  1.00  0.00     0.133 A 
HETATM    7  N   UNL     1     -42.881 -48.064   9.584  1.00  0.00    -0.337 N 
ATOM      8  HN  UNL     1     -43.032 -48.802   8.897  1.00  0.00     0.168 HD
HETATM    9  C   UNL     1     -43.684 -46.979   9.620  1.00  0.00     0.183 A 
HETATM   10  N   UNL     1     -43.617 -45.921  10.445  1.00  0.00    -0.336 N 
ATOM     11  HN  UNL     1     -44.232 -45.109  10.389  1.00  0.00     0.168 HD
HETATM   12  C   UNL     1     -42.640 -46.070  11.350  1.00  0.00     0.140 A 
ENDROOT
BRANCH   6  13
HETATM   13  N   UNL     1     -40.939 -49.182  10.425  1.00  0.00    -0.370 N 
HETATM   14  H   UNL     1     -39.997 -48.831  10.281  1.00  0.00     0.161 HD
BRANCH  13  15
HETATM   15  C   UNL     1     -41.077 -50.260  11.380  1.00  0.00     0.160 C 
BRANCH  15  16
HETATM   16  C   UNL     1     -39.735 -50.501  12.034  1.00  0.00    -0.041 A 
HETATM   17  C   UNL     1     -38.573 -49.885  11.546  1.00  0.00     0.009 A 
HETATM   18  C   UNL     1     -37.339 -50.127  12.152  1.00  0.00     0.001 A 
HETATM   19  C   UNL     1     -37.251 -50.985  13.248  1.00  0.00     0.000 A 
HETATM   20  C   UNL     1     -38.398 -51.601  13.743  1.00  0.00     0.001 A 
HETATM   21  C   UNL     1     -39.633 -51.357  13.142  1.00  0.00     0.009 A 
ENDBRANCH  15  16
ENDBRANCH  13  15
ENDBRANCH   6  13
BRANCH   1  22
HETATM   22  C   UNL     1     -42.751 -43.848  12.534  1.00  0.00     0.168 C 
BRANCH  22  23
HETATM   23  C   UNL     1     -42.299 -42.793  11.489  1.00  0.00     0.070 C 
HETATM   24  C   UNL     1     -42.743 -41.382  11.888  1.00  0.00     0.047 C 
BRANCH  23  25
HETATM   25  C   UNL     1     -40.759 -42.890  11.344  1.00  0.00     0.034 C 
HETATM   26  C   UNL     1     -39.970 -42.261  12.488  1.00  0.00     0.008 C 
ENDBRANCH  23  25
BRANCH  23  27
HETATM   27  O   UNL     1     -42.848 -43.124  10.214  1.00  0.00    -0.389 OA
HETATM   28  H   UNL     1     -42.985 -44.082  10.156  1.00  0.00     0.210 HD
ENDBRANCH  23  27
ENDBRANCH  22  23
ENDBRANCH   1  22
TORSDOF 7
ENDMDL
MODEL 7
REMARK VINA RESULT:      -5.7      3.930      7.196
REMARK  7 active torsions:
REMARK  status: ('A' for Active; 'I' for Inactive)
REMARK    1  A    between atoms: C_2  and  C_3 
REMARK    2  A    between atoms: C_3  and  O_5 
REMARK    3  A    between atoms: C_3  and  C_6 
REMARK    4  A    between atoms: C_6  and  N_7 
REMARK    5  A    between atoms: C_12  and  N_13 
REMARK    6  A    between atoms: N_13  and  C_14 
REMARK    7  A    between atoms: C_14  and  C_15 
ROOT
HETATM    1  N   UNL     1     -44.308 -52.630  13.670  1.00  0.00    -0.324 N 
HETATM    2  C   UNL     1     -44.495 -51.338  13.245  1.00  0.00     0.185 A 
HETATM    3  N   UNL     1     -43.473 -50.895  12.542  1.00  0.00    -0.346 N 
ATOM      4  HN  UNL     1     -43.359 -49.974  12.118  1.00  0.00     0.167 HD
HETATM    5  C   UNL     1     -42.588 -51.956  12.505  1.00  0.00     0.122 A 
HETATM    6  C   UNL     1     -41.341 -52.124  11.869  1.00  0.00     0.133 A 
HETATM    7  N   UNL     1     -40.679 -53.292  12.071  1.00  0.00    -0.337 N 
ATOM      8  HN  UNL     1     -39.754 -53.443  11.669  1.00  0.00     0.168 HD
HETATM    9  C   UNL     1     -41.273 -54.251  12.814  1.00  0.00     0.183 A 
HETATM   10  N   UNL     1     -42.481 -54.220  13.400  1.00  0.00    -0.336 N 
ATOM     11  HN  UNL     1     -42.891 -54.999  13.913  1.00  0.00     0.168 HD
HETATM   12  C   UNL     1     -43.079 -53.033  13.223  1.00  0.00     0.140 A 
ENDROOT
BRANCH   6  13
HETATM   13  N   UNL     1     -40.835 -51.147  11.021  1.00  0.00    -0.370 N 
HETATM   14  H   UNL     1     -41.329 -51.129  10.133  1.00  0.00     0.161 HD
BRANCH  13  15
HETATM   15  C   UNL     1     -40.519 -49.860  11.600  1.00  0.00     0.160 C 
BRANCH  15  16
HETATM   16  C   UNL     1     -39.397 -50.041  12.597  1.00  0.00    -0.041 A 
HETATM   17  C   UNL     1     -38.161 -50.573  12.204  1.00  0.00     0.009 A 
HETATM   18  C   UNL     1     -37.138 -50.748  13.138  1.00  0.00     0.001 A 
HETATM   19  C   UNL     1     -37.338 -50.394  14.472  1.00  0.00     0.000 A 
HETATM   20  C   UNL     1     -38.561 -49.862  14.874  1.00  0.00     0.001 A 
HETATM   21  C   UNL     1     -39.583 -49.683  13.942  1.00  0.00     0.009 A 
ENDBRANCH  15  16
ENDBRANCH  13  15
ENDBRANCH   6  13
BRANCH   1  22
HETATM   22  C   UNL     1     -45.318 -53.467  14.293  1.00  0.00     0.168 C 
BRANCH  22  23
HETATM   23  C   UNL     1     -45.523 -53.300  15.823  1.00  0.00     0.070 C 
HETATM   24  C   UNL     1     -44.248 -52.797  16.507  1.00  0.00     0.047 C 
BRANCH  23  25
HETATM   25  C   UNL     1     -46.713 -52.333  16.045  1.00  0.00     0.034 C 
HETATM   26  C   UNL     1     -46.319 -50.931  16.500  1.00  0.00     0.008 C 
ENDBRANCH  23  25
BRANCH  23  27
HETATM   27  O   UNL     1     -45.906 -54.552  16.389  1.00  0.00    -0.389 OA
HETATM   28  H   UNL     1     -46.194 -55.155  15.685  1.00  0.00     0.210 HD
ENDBRANCH  23  27
ENDBRANCH  22  23
ENDBRANCH   1  22
TORSDOF 7
ENDMDL
MODEL 8
REMARK VINA RESULT:      -5.6      3.285      7.250
REMARK  7 active torsions:
REMARK  status: ('A' for Active; 'I' for Inactive)
REMARK    1  A    between atoms: C_2  and  C_3 
REMARK    2  A    between atoms: C_3  and  O_5 
REMARK    3  A    between atoms: C_3  and  C_6 
REMARK    4  A    between atoms: C_6  and  N_7 
REMARK    5  A    between atoms: C_12  and  N_13 
REMARK    6  A    between atoms: N_13  and  C_14 
REMARK    7  A    between atoms: C_14  and  C_15 
ROOT
HETATM    1  N   UNL     1     -42.836 -52.360  13.220  1.00  0.00    -0.324 N 
HETATM    2  C   UNL     1     -42.807 -51.012  13.479  1.00  0.00     0.185 A 
HETATM    3  N   UNL     1     -41.618 -50.611  13.880  1.00  0.00    -0.346 N 
ATOM      4  HN  UNL     1     -41.334 -49.666  14.140  1.00  0.00     0.167 HD
HETATM    5  C   UNL     1     -40.841 -51.754  13.871  1.00  0.00     0.122 A 
HETATM    6  C   UNL     1     -39.476 -51.969  14.150  1.00  0.00     0.133 A 
HETATM    7  N   UNL     1     -39.014 -53.245  14.100  1.00  0.00    -0.337 N 
ATOM      8  HN  UNL     1     -38.045 -53.458  14.338  1.00  0.00     0.168 HD
HETATM    9  C   UNL     1     -39.864 -54.227  13.730  1.00  0.00     0.183 A 
HETATM   10  N   UNL     1     -41.155 -54.119  13.377  1.00  0.00    -0.336 N 
ATOM     11  HN  UNL     1     -41.733 -54.898  13.063  1.00  0.00     0.168 HD
HETATM   12  C   UNL     1     -41.588 -52.854  13.489  1.00  0.00     0.140 A 
ENDROOT
BRANCH   6  13
HETATM   13  N   UNL     1     -38.623 -50.904  14.410  1.00  0.00    -0.370 N 
HETATM   14  H   UNL     1     -38.043 -51.079  15.224  1.00  0.00     0.161 HD
BRANCH  13  15
HETATM   15  C   UNL     1     -37.965 -50.286  13.279  1.00  0.00     0.160 C 
BRANCH  15  16
HETATM   16  C   UNL     1     -38.559 -48.911  13.068  1.00  0.00    -0.041 A 
HETATM   17  C   UNL     1     -39.281 -48.607  11.905  1.00  0.00     0.009 A 
HETATM   18  C   UNL     1     -39.812 -47.329  11.718  1.00  0.00     0.001 A 
HETATM   19  C   UNL     1     -39.627 -46.343  12.687  1.00  0.00     0.000 A 
HETATM   20  C   UNL     1     -38.913 -46.634  13.848  1.00  0.00     0.001 A 
HETATM   21  C   UNL     1     -38.386 -47.910  14.039  1.00  0.00     0.009 A 
ENDBRANCH  15  16
ENDBRANCH  13  15
ENDBRANCH   6  13
BRANCH   1  22
HETATM   22  C   UNL     1     -43.928 -53.073  12.581  1.00  0.00     0.168 C 
BRANCH  22  23
HETATM   23  C   UNL     1     -45.168 -53.391  13.460  1.00  0.00     0.070 C 
HETATM   24  C   UNL     1     -44.810 -53.409  14.950  1.00  0.00     0.047 C 
BRANCH  23  25
HETATM   25  C   UNL     1     -46.261 -52.339  13.146  1.00  0.00     0.034 C 
HETATM   26  C   UNL     1     -46.621 -51.425  14.314  1.00  0.00     0.008 C 
ENDBRANCH  23  25
BRANCH  23  27
HETATM   27  O   UNL     1     -45.704 -54.658  13.083  1.00  0.00    -0.389 OA
HETATM   28  H   UNL     1     -45.438 -55.330  13.729  1.00  0.00     0.210 HD
ENDBRANCH  23  27
ENDBRANCH  22  23
ENDBRANCH   1  22
TORSDOF 7
ENDMDL
MODEL 9
REMARK VINA RESULT:      -5.5      3.407      7.242
REMARK  7 active torsions:
REMARK  status: ('A' for Active; 'I' for Inactive)
REMARK    1  A    between atoms: C_2  and  C_3 
REMARK    2  A    between atoms: C_3  and  O_5 
REMARK    3  A    between atoms: C_3  and  C_6 
REMARK    4  A    between atoms: C_6  and  N_7 
REMARK    5  A    between atoms: C_12  and  N_13 
REMARK    6  A    between atoms: N_13  and  C_14 
REMARK    7  A    between atoms: C_14  and  C_15 
ROOT
HETATM    1  N   UNL     1     -43.235 -52.325  14.521  1.00  0.00    -0.324 N 
HETATM    2  C   UNL     1     -43.154 -51.117  15.169  1.00  0.00     0.185 A 
HETATM    3  N   UNL     1     -42.358 -50.273  14.545  1.00  0.00    -0.346 N 
ATOM      4  HN  UNL     1     -42.123 -49.319  14.818  1.00  0.00     0.167 HD
HETATM    5  C   UNL     1     -41.912 -50.968  13.436  1.00  0.00     0.122 A 
HETATM    6  C   UNL     1     -41.080 -50.595  12.360  1.00  0.00     0.133 A 
HETATM    7  N   UNL     1     -40.781 -51.542  11.434  1.00  0.00    -0.337 N 
ATOM      8  HN  UNL     1     -40.148 -51.334  10.662  1.00  0.00     0.168 HD
HETATM    9  C   UNL     1     -41.342 -52.765  11.555  1.00  0.00     0.183 A 
HETATM   10  N   UNL     1     -42.198 -53.197  12.495  1.00  0.00    -0.336 N 
ATOM     11  HN  UNL     1     -42.621 -54.125  12.505  1.00  0.00     0.168 HD
HETATM   12  C   UNL     1     -42.426 -52.253  13.420  1.00  0.00     0.140 A 
ENDROOT
BRANCH   6  13
HETATM   13  N   UNL     1     -40.629 -49.289  12.226  1.00  0.00    -0.370 N 
HETATM   14  H   UNL     1     -40.993 -48.689  12.960  1.00  0.00     0.161 HD
BRANCH  13  15
HETATM   15  C   UNL     1     -39.238 -49.096  11.878  1.00  0.00     0.160 C 
BRANCH  15  16
HETATM   16  C   UNL     1     -38.432 -48.987  13.153  1.00  0.00    -0.041 A 
HETATM   17  C   UNL     1     -38.351 -47.776  13.854  1.00  0.00     0.009 A 
HETATM   18  C   UNL     1     -37.592 -47.687  15.023  1.00  0.00     0.001 A 
HETATM   19  C   UNL     1     -36.907 -48.803  15.502  1.00  0.00     0.000 A 
HETATM   20  C   UNL     1     -36.982 -50.013  14.814  1.00  0.00     0.001 A 
HETATM   21  C   UNL     1     -37.742 -50.105  13.650  1.00  0.00     0.009 A 
ENDBRANCH  15  16
ENDBRANCH  13  15
ENDBRANCH   6  13
BRANCH   1  22
HETATM   22  C   UNL     1     -44.169 -53.391  14.839  1.00  0.00     0.168 C 
BRANCH  22  23
HETATM   23  C   UNL     1     -45.451 -53.484  13.967  1.00  0.00     0.070 C 
HETATM   24  C   UNL     1     -46.541 -54.308  14.660  1.00  0.00     0.047 C 
BRANCH  23  25
HETATM   25  C   UNL     1     -45.930 -52.042  13.662  1.00  0.00     0.034 C 
HETATM   26  C   UNL     1     -46.830 -51.429  14.731  1.00  0.00     0.008 C 
ENDBRANCH  23  25
BRANCH  23  27
HETATM   27  O   UNL     1     -45.128 -54.078  12.711  1.00  0.00    -0.389 OA
HETATM   28  H   UNL     1     -44.180 -54.282  12.680  1.00  0.00     0.210 HD
ENDBRANCH  23  27
ENDBRANCH  22  23
ENDBRANCH   1  22
TORSDOF 7
ENDMDL
