MODEL 1
REMARK VINA RESULT:      -5.5      0.000      0.000
REMARK  4 active torsions:
REMARK  status: ('A' for Active; 'I' for Inactive)
REMARK    1  A    between atoms: C_2  and  C_3 
REMARK       I    between atoms: C_2  and  N_11 
REMARK    2  A    between atoms: C_3  and  N_4 
REMARK    3  A    between atoms: N_11  and  C_12 
REMARK    4  A    between atoms: C_12  and  C_13 
ROOT
HETATM    1  O   UNL     1     -43.085 -55.672  15.305  1.00  0.00    -0.272 OA
HETATM    2  C   UNL     1     -43.594 -55.026  14.393  1.00  0.00     0.235 C 
HETATM    3  N   UNL     1     -42.873 -54.235  13.524  1.00  0.00    -0.357 N 
HETATM    4  H   UNL     1     -43.373 -53.511  13.008  1.00  0.00     0.162 HD
ENDROOT
BRANCH   2   5
HETATM    5  C   UNL     1     -45.107 -55.007  14.145  1.00  0.00     0.234 C 
BRANCH   5   6
HETATM    6  N   UNL     1     -45.706 -53.702  14.397  1.00  0.00    -0.316 N 
HETATM    7  C   UNL     1     -46.200 -53.401  15.657  1.00  0.00     0.095 A 
HETATM    8  C   UNL     1     -46.845 -52.251  15.891  1.00  0.00     0.017 A 
HETATM    9  C   UNL     1     -47.000 -51.285  14.833  1.00  0.00     0.007 A 
HETATM   10  C   UNL     1     -46.549 -51.548  13.601  1.00  0.00     0.074 A 
HETATM   11  C   UNL     1     -45.896 -52.855  13.308  1.00  0.00     0.247 A 
HETATM   12  O   UNL     1     -45.564 -53.120  12.155  1.00  0.00    -0.268 OA
ENDBRANCH   5   6
ENDBRANCH   2   5
BRANCH   3  13
HETATM   13  C   UNL     1     -41.422 -54.157  13.523  1.00  0.00     0.154 C 
BRANCH  13  14
HETATM   14  C   UNL     1     -40.894 -52.722  13.592  1.00  0.00     0.139 C 
HETATM   15  C   UNL     1     -41.872 -51.640  13.153  1.00  0.00     0.035 C 
HETATM   16  C   UNL     1     -41.039 -50.678  12.331  1.00  0.00     0.029 C 
HETATM   17  C   UNL     1     -39.618 -51.167  12.494  1.00  0.00     0.168 C 
HETATM   18  O   UNL     1     -39.722 -52.566  12.772  1.00  0.00    -0.384 OA
ENDBRANCH  13  14
ENDBRANCH   3  13
TORSDOF 4
ENDMDL
MODEL 2
REMARK VINA RESULT:      -5.4      2.043      2.694
REMARK  4 active torsions:
REMARK  status: ('A' for Active; 'I' for Inactive)
REMARK    1  A    between atoms: C_2  and  C_3 
REMARK       I    between atoms: C_2  and  N_11 
REMARK    2  A    between atoms: C_3  and  N_4 
REMARK    3  A    between atoms: N_11  and  C_12 
REMARK    4  A    between atoms: C_12  and  C_13 
ROOT
HETATM    1  O   UNL     1     -42.251 -53.309  13.851  1.00  0.00    -0.272 OA
HETATM    2  C   UNL     1     -42.807 -53.096  12.778  1.00  0.00     0.235 C 
HETATM    3  N   UNL     1     -42.293 -52.269  11.804  1.00  0.00    -0.357 N 
HETATM    4  H   UNL     1     -42.933 -51.907  11.096  1.00  0.00     0.162 HD
ENDROOT
BRANCH   2   5
HETATM    5  C   UNL     1     -44.165 -53.712  12.422  1.00  0.00     0.234 C 
BRANCH   5   6
HETATM    6  N   UNL     1     -45.240 -53.263  13.299  1.00  0.00    -0.316 N 
HETATM    7  C   UNL     1     -45.628 -51.932  13.289  1.00  0.00     0.095 A 
HETATM    8  C   UNL     1     -46.540 -51.471  14.153  1.00  0.00     0.017 A 
HETATM    9  C   UNL     1     -47.166 -52.372  15.089  1.00  0.00     0.007 A 
HETATM   10  C   UNL     1     -46.804 -53.660  15.137  1.00  0.00     0.074 A 
HETATM   11  C   UNL     1     -45.737 -54.170  14.232  1.00  0.00     0.247 A 
HETATM   12  O   UNL     1     -45.353 -55.332  14.344  1.00  0.00    -0.268 OA
ENDBRANCH   5   6
ENDBRANCH   2   5
BRANCH   3  13
HETATM   13  C   UNL     1     -40.988 -51.636  11.891  1.00  0.00     0.154 C 
BRANCH  13  14
HETATM   14  C   UNL     1     -41.062 -50.113  12.022  1.00  0.00     0.139 C 
HETATM   15  C   UNL     1     -42.410 -49.556  12.462  1.00  0.00     0.035 C 
HETATM   16  C   UNL     1     -42.624 -48.333  11.593  1.00  0.00     0.029 C 
HETATM   17  C   UNL     1     -41.322 -48.166  10.842  1.00  0.00     0.168 C 
HETATM   18  O   UNL     1     -40.747 -49.473  10.773  1.00  0.00    -0.384 OA
ENDBRANCH  13  14
ENDBRANCH   3  13
TORSDOF 4
ENDMDL
MODEL 3
REMARK VINA RESULT:      -5.1      1.884      3.286
REMARK  4 active torsions:
REMARK  status: ('A' for Active; 'I' for Inactive)
REMARK    1  A    between atoms: C_2  and  C_3 
REMARK       I    between atoms: C_2  and  N_11 
REMARK    2  A    between atoms: C_3  and  N_4 
REMARK    3  A    between atoms: N_11  and  C_12 
REMARK    4  A    between atoms: C_12  and  C_13 
ROOT
HETATM    1  O   UNL     1     -42.677 -51.800  12.624  1.00  0.00    -0.272 OA
HETATM    2  C   UNL     1     -43.047 -52.970  12.608  1.00  0.00     0.235 C 
HETATM    3  N   UNL     1     -42.195 -54.042  12.761  1.00  0.00    -0.357 N 
HETATM    4  H   UNL     1     -42.512 -54.956  12.438  1.00  0.00     0.162 HD
ENDROOT
BRANCH   2   5
HETATM    5  C   UNL     1     -44.511 -53.364  12.379  1.00  0.00     0.234 C 
BRANCH   5   6
HETATM    6  N   UNL     1     -45.375 -53.009  13.498  1.00  0.00    -0.316 N 
HETATM    7  C   UNL     1     -46.009 -51.776  13.517  1.00  0.00     0.095 A 
HETATM    8  C   UNL     1     -46.726 -51.383  14.577  1.00  0.00     0.017 A 
HETATM    9  C   UNL     1     -46.883 -52.263  15.707  1.00  0.00     0.007 A 
HETATM   10  C   UNL     1     -46.273 -53.454  15.730  1.00  0.00     0.074 A 
HETATM   11  C   UNL     1     -45.411 -53.874  14.590  1.00  0.00     0.247 A 
HETATM   12  O   UNL     1     -44.787 -54.930  14.659  1.00  0.00    -0.268 OA
ENDBRANCH   5   6
ENDBRANCH   2   5
BRANCH   3  13
HETATM   13  C   UNL     1     -40.779 -53.908  13.062  1.00  0.00     0.154 C 
BRANCH  13  14
HETATM   14  C   UNL     1     -40.464 -54.032  14.554  1.00  0.00     0.139 C 
HETATM   15  C   UNL     1     -39.119 -54.664  14.892  1.00  0.00     0.035 C 
HETATM   16  C   UNL     1     -39.409 -55.587  16.058  1.00  0.00     0.029 C 
HETATM   17  C   UNL     1     -40.847 -55.297  16.426  1.00  0.00     0.168 C 
HETATM   18  O   UNL     1     -41.462 -54.820  15.227  1.00  0.00    -0.384 OA
ENDBRANCH  13  14
ENDBRANCH   3  13
TORSDOF 4
ENDMDL
MODEL 4
REMARK VINA RESULT:      -5.0      1.890      2.995
REMARK  4 active torsions:
REMARK  status: ('A' for Active; 'I' for Inactive)
REMARK    1  A    between atoms: C_2  and  C_3 
REMARK       I    between atoms: C_2  and  N_11 
REMARK    2  A    between atoms: C_3  and  N_4 
REMARK    3  A    between atoms: N_11  and  C_12 
REMARK    4  A    between atoms: C_12  and  C_13 
ROOT
HETATM    1  O   UNL     1     -42.365 -50.237  13.666  1.00  0.00    -0.272 OA
HETATM    2  C   UNL     1     -43.135 -51.018  13.116  1.00  0.00     0.235 C 
HETATM    3  N   UNL     1     -42.729 -51.999  12.238  1.00  0.00    -0.357 N 
HETATM    4  H   UNL     1     -43.424 -52.393  11.604  1.00  0.00     0.162 HD
ENDROOT
BRANCH   2   5
HETATM    5  C   UNL     1     -44.653 -50.960  13.328  1.00  0.00     0.234 C 
BRANCH   5   6
HETATM    6  N   UNL     1     -45.150 -52.047  14.163  1.00  0.00    -0.316 N 
HETATM    7  C   UNL     1     -45.046 -51.961  15.543  1.00  0.00     0.095 A 
HETATM    8  C   UNL     1     -45.402 -52.985  16.328  1.00  0.00     0.017 A 
HETATM    9  C   UNL     1     -45.941 -54.188  15.744  1.00  0.00     0.007 A 
HETATM   10  C   UNL     1     -46.041 -54.311  14.415  1.00  0.00     0.074 A 
HETATM   11  C   UNL     1     -45.579 -53.209  13.526  1.00  0.00     0.247 A 
HETATM   12  O   UNL     1     -45.596 -53.368  12.307  1.00  0.00    -0.268 OA
ENDBRANCH   5   6
ENDBRANCH   2   5
BRANCH   3  13
HETATM   13  C   UNL     1     -41.336 -52.288  11.941  1.00  0.00     0.154 C 
BRANCH  13  14
HETATM   14  C   UNL     1     -40.816 -53.545  12.641  1.00  0.00     0.139 C 
HETATM   15  C   UNL     1     -41.744 -54.145  13.690  1.00  0.00     0.035 C 
HETATM   16  C   UNL     1     -40.831 -54.532  14.836  1.00  0.00     0.029 C 
HETATM   17  C   UNL     1     -39.434 -54.296  14.307  1.00  0.00     0.168 C 
HETATM   18  O   UNL     1     -39.567 -53.285  13.306  1.00  0.00    -0.384 OA
ENDBRANCH  13  14
ENDBRANCH   3  13
TORSDOF 4
ENDMDL
MODEL 5
REMARK VINA RESULT:      -4.9      3.028      4.810
REMARK  4 active torsions:
REMARK  status: ('A' for Active; 'I' for Inactive)
REMARK    1  A    between atoms: C_2  and  C_3 
REMARK       I    between atoms: C_2  and  N_11 
REMARK    2  A    between atoms: C_3  and  N_4 
REMARK    3  A    between atoms: N_11  and  C_12 
REMARK    4  A    between atoms: C_12  and  C_13 
ROOT
HETATM    1  O   UNL     1     -42.427 -50.541  12.907  1.00  0.00    -0.272 OA
HETATM    2  C   UNL     1     -41.819 -51.291  12.148  1.00  0.00     0.235 C 
HETATM    3  N   UNL     1     -40.772 -50.883  11.350  1.00  0.00    -0.357 N 
HETATM    4  H   UNL     1     -40.528 -51.463  10.547  1.00  0.00     0.162 HD
ENDROOT
BRANCH   2   5
HETATM    5  C   UNL     1     -42.188 -52.770  11.986  1.00  0.00     0.234 C 
BRANCH   5   6
HETATM    6  N   UNL     1     -41.971 -53.546  13.201  1.00  0.00    -0.316 N 
HETATM    7  C   UNL     1     -43.056 -53.951  13.964  1.00  0.00     0.095 A 
HETATM    8  C   UNL     1     -42.882 -54.576  15.135  1.00  0.00     0.017 A 
HETATM    9  C   UNL     1     -41.552 -54.874  15.603  1.00  0.00     0.007 A 
HETATM   10  C   UNL     1     -40.482 -54.484  14.899  1.00  0.00     0.074 A 
HETATM   11  C   UNL     1     -40.659 -53.722  13.632  1.00  0.00     0.247 A 
HETATM   12  O   UNL     1     -39.670 -53.294  13.040  1.00  0.00    -0.268 OA
ENDBRANCH   5   6
ENDBRANCH   2   5
BRANCH   3  13
HETATM   13  C   UNL     1     -40.203 -49.546  11.390  1.00  0.00     0.154 C 
BRANCH  13  14
HETATM   14  C   UNL     1     -38.879 -49.476  12.153  1.00  0.00     0.139 C 
HETATM   15  C   UNL     1     -37.741 -50.307  11.574  1.00  0.00     0.035 C 
HETATM   16  C   UNL     1     -37.071 -50.936  12.779  1.00  0.00     0.029 C 
HETATM   17  C   UNL     1     -37.746 -50.294  13.970  1.00  0.00     0.168 C 
HETATM   18  O   UNL     1     -39.046 -49.911  13.514  1.00  0.00    -0.384 OA
ENDBRANCH  13  14
ENDBRANCH   3  13
TORSDOF 4
ENDMDL
MODEL 6
REMARK VINA RESULT:      -4.9      2.098      6.281
REMARK  4 active torsions:
REMARK  status: ('A' for Active; 'I' for Inactive)
REMARK    1  A    between atoms: C_2  and  C_3 
REMARK       I    between atoms: C_2  and  N_11 
REMARK    2  A    between atoms: C_3  and  N_4 
REMARK    3  A    between atoms: N_11  and  C_12 
REMARK    4  A    between atoms: C_12  and  C_13 
ROOT
HETATM    1  O   UNL     1     -41.517 -53.564  14.041  1.00  0.00    -0.272 OA
HETATM    2  C   UNL     1     -41.854 -52.428  13.720  1.00  0.00     0.235 C 
HETATM    3  N   UNL     1     -42.926 -52.154  12.899  1.00  0.00    -0.357 N 
HETATM    4  H   UNL     1     -42.958 -51.244  12.440  1.00  0.00     0.162 HD
ENDROOT
BRANCH   2   5
HETATM    5  C   UNL     1     -41.085 -51.183  14.179  1.00  0.00     0.234 C 
BRANCH   5   6
HETATM    6  N   UNL     1     -39.910 -50.909  13.360  1.00  0.00    -0.316 N 
HETATM    7  C   UNL     1     -38.662 -51.348  13.775  1.00  0.00     0.095 A 
HETATM    8  C   UNL     1     -37.554 -51.025  13.096  1.00  0.00     0.017 A 
HETATM    9  C   UNL     1     -37.651 -50.241  11.891  1.00  0.00     0.007 A 
HETATM   10  C   UNL     1     -38.838 -49.787  11.470  1.00  0.00     0.074 A 
HETATM   11  C   UNL     1     -40.070 -50.076  12.255  1.00  0.00     0.247 A 
HETATM   12  O   UNL     1     -41.140 -49.582  11.907  1.00  0.00    -0.268 OA
ENDBRANCH   5   6
ENDBRANCH   2   5
BRANCH   3  13
HETATM   13  C   UNL     1     -43.842 -53.169  12.404  1.00  0.00     0.154 C 
BRANCH  13  14
HETATM   14  C   UNL     1     -45.301 -52.901  12.777  1.00  0.00     0.139 C 
HETATM   15  C   UNL     1     -45.645 -51.448  13.083  1.00  0.00     0.035 C 
HETATM   16  C   UNL     1     -46.556 -51.515  14.292  1.00  0.00     0.029 C 
HETATM   17  C   UNL     1     -46.817 -52.991  14.494  1.00  0.00     0.168 C 
HETATM   18  O   UNL     1     -45.682 -53.660  13.938  1.00  0.00    -0.384 OA
ENDBRANCH  13  14
ENDBRANCH   3  13
TORSDOF 4
ENDMDL
MODEL 7
REMARK VINA RESULT:      -4.8      4.068      5.197
REMARK  4 active torsions:
REMARK  status: ('A' for Active; 'I' for Inactive)
REMARK    1  A    between atoms: C_2  and  C_3 
REMARK       I    between atoms: C_2  and  N_11 
REMARK    2  A    between atoms: C_3  and  N_4 
REMARK    3  A    between atoms: N_11  and  C_12 
REMARK    4  A    between atoms: C_12  and  C_13 
ROOT
HETATM    1  O   UNL     1     -42.932 -48.626  13.427  1.00  0.00    -0.272 OA
HETATM    2  C   UNL     1     -42.637 -49.661  12.837  1.00  0.00     0.235 C 
HETATM    3  N   UNL     1     -42.081 -49.688  11.576  1.00  0.00    -0.357 N 
HETATM    4  H   UNL     1     -42.148 -50.555  11.042  1.00  0.00     0.162 HD
ENDROOT
BRANCH   2   5
HETATM    5  C   UNL     1     -42.890 -51.049  13.438  1.00  0.00     0.234 C 
BRANCH   5   6
HETATM    6  N   UNL     1     -44.258 -51.221  13.911  1.00  0.00    -0.316 N 
HETATM    7  C   UNL     1     -45.281 -51.438  13.000  1.00  0.00     0.095 A 
HETATM    8  C   UNL     1     -46.558 -51.499  13.397  1.00  0.00     0.017 A 
HETATM    9  C   UNL     1     -46.885 -51.378  14.795  1.00  0.00     0.007 A 
HETATM   10  C   UNL     1     -45.925 -51.153  15.700  1.00  0.00     0.074 A 
HETATM   11  C   UNL     1     -44.508 -51.008  15.264  1.00  0.00     0.247 A 
HETATM   12  O   UNL     1     -43.648 -50.715  16.092  1.00  0.00    -0.268 OA
ENDBRANCH   5   6
ENDBRANCH   2   5
BRANCH   3  13
HETATM   13  C   UNL     1     -41.687 -48.497  10.844  1.00  0.00     0.154 C 
BRANCH  13  14
HETATM   14  C   UNL     1     -42.875 -47.662  10.362  1.00  0.00     0.139 C 
HETATM   15  C   UNL     1     -43.186 -47.759   8.874  1.00  0.00     0.035 C 
HETATM   16  C   UNL     1     -43.500 -46.338   8.452  1.00  0.00     0.029 C 
HETATM   17  C   UNL     1     -43.523 -45.552   9.744  1.00  0.00     0.168 C 
HETATM   18  O   UNL     1     -42.670 -46.266  10.643  1.00  0.00    -0.384 OA
ENDBRANCH  13  14
ENDBRANCH   3  13
TORSDOF 4
ENDMDL
MODEL 8
REMARK VINA RESULT:      -4.7      4.679      7.203
REMARK  4 active torsions:
REMARK  status: ('A' for Active; 'I' for Inactive)
REMARK    1  A    between atoms: C_2  and  C_3 
REMARK       I    between atoms: C_2  and  N_11 
REMARK    2  A    between atoms: C_3  and  N_4 
REMARK    3  A    between atoms: N_11  and  C_12 
REMARK    4  A    between atoms: C_12  and  C_13 
ROOT
HETATM    1  O   UNL     1     -39.066 -47.902  13.243  1.00  0.00    -0.272 OA
HETATM    2  C   UNL     1     -39.156 -48.478  12.163  1.00  0.00     0.235 C 
HETATM    3  N   UNL     1     -39.834 -47.964  11.079  1.00  0.00    -0.357 N 
HETATM    4  H   UNL     1     -40.121 -48.610  10.343  1.00  0.00     0.162 HD
ENDROOT
BRANCH   2   5
HETATM    5  C   UNL     1     -38.543 -49.862  11.917  1.00  0.00     0.234 C 
BRANCH   5   6
HETATM    6  N   UNL     1     -39.136 -50.901  12.749  1.00  0.00    -0.316 N 
HETATM    7  C   UNL     1     -38.395 -51.476  13.770  1.00  0.00     0.095 A 
HETATM    8  C   UNL     1     -38.878 -52.500  14.484  1.00  0.00     0.017 A 
HETATM    9  C   UNL     1     -40.206 -52.997  14.223  1.00  0.00     0.007 A 
HETATM   10  C   UNL     1     -40.944 -52.476  13.235  1.00  0.00     0.074 A 
HETATM   11  C   UNL     1     -40.390 -51.387  12.384  1.00  0.00     0.247 A 
HETATM   12  O   UNL     1     -41.042 -50.976  11.427  1.00  0.00    -0.268 OA
ENDBRANCH   5   6
ENDBRANCH   2   5
BRANCH   3  13
HETATM   13  C   UNL     1     -40.430 -46.639  11.057  1.00  0.00     0.154 C 
BRANCH  13  14
HETATM   14  C   UNL     1     -41.909 -46.649  10.664  1.00  0.00     0.139 C 
HETATM   15  C   UNL     1     -42.425 -47.956  10.076  1.00  0.00     0.035 C 
HETATM   16  C   UNL     1     -43.314 -47.535   8.923  1.00  0.00     0.029 C 
HETATM   17  C   UNL     1     -43.393 -46.029   9.031  1.00  0.00     0.168 C 
HETATM   18  O   UNL     1     -42.189 -45.628   9.690  1.00  0.00    -0.384 OA
ENDBRANCH  13  14
ENDBRANCH   3  13
TORSDOF 4
ENDMDL
MODEL 9
REMARK VINA RESULT:      -4.6      5.562      7.611
REMARK  4 active torsions:
REMARK  status: ('A' for Active; 'I' for Inactive)
REMARK    1  A    between atoms: C_2  and  C_3 
REMARK       I    between atoms: C_2  and  N_11 
REMARK    2  A    between atoms: C_3  and  N_4 
REMARK    3  A    between atoms: N_11  and  C_12 
REMARK    4  A    between atoms: C_12  and  C_13 
ROOT
HETATM    1  O   UNL     1     -42.140 -49.624  12.307  1.00  0.00    -0.272 OA
HETATM    2  C   UNL     1     -41.217 -49.566  11.500  1.00  0.00     0.235 C 
HETATM    3  N   UNL     1     -41.246 -48.788  10.363  1.00  0.00    -0.357 N 
HETATM    4  H   UNL     1     -40.599 -49.019   9.608  1.00  0.00     0.162 HD
ENDROOT
BRANCH   2   5
HETATM    5  C   UNL     1     -39.933 -50.389  11.661  1.00  0.00     0.234 C 
BRANCH   5   6
HETATM    6  N   UNL     1     -39.102 -49.933  12.769  1.00  0.00    -0.316 N 
HETATM    7  C   UNL     1     -38.881 -48.577  12.954  1.00  0.00     0.095 A 
HETATM    8  C   UNL     1     -38.043 -48.136  13.901  1.00  0.00     0.017 A 
HETATM    9  C   UNL     1     -37.385 -49.075  14.774  1.00  0.00     0.007 A 
HETATM   10  C   UNL     1     -37.564 -50.392  14.614  1.00  0.00     0.074 A 
HETATM   11  C   UNL     1     -38.434 -50.899  13.518  1.00  0.00     0.247 A 
HETATM   12  O   UNL     1     -38.522 -52.110  13.326  1.00  0.00    -0.268 OA
ENDBRANCH   5   6
ENDBRANCH   2   5
BRANCH   3  13
HETATM   13  C   UNL     1     -42.327 -47.871  10.042  1.00  0.00     0.154 C 
BRANCH  13  14
HETATM   14  C   UNL     1     -42.077 -46.445  10.536  1.00  0.00     0.139 C 
HETATM   15  C   UNL     1     -40.614 -46.042  10.671  1.00  0.00     0.035 C 
HETATM   16  C   UNL     1     -40.545 -45.270  11.972  1.00  0.00     0.029 C 
HETATM   17  C   UNL     1     -41.986 -45.127  12.409  1.00  0.00     0.168 C 
HETATM   18  O   UNL     1     -42.675 -46.238  11.828  1.00  0.00    -0.384 OA
ENDBRANCH  13  14
ENDBRANCH   3  13
TORSDOF 4
ENDMDL
