MODEL 1
REMARK VINA RESULT:      -5.6      0.000      0.000
REMARK  7 active torsions:
REMARK  status: ('A' for Active; 'I' for Inactive)
REMARK    1  A    between atoms: C_2  and  C_4 
REMARK    2  A    between atoms: C_4  and  C_5 
REMARK       I    between atoms: C_5  and  N_7 
REMARK    3  A    between atoms: N_7  and  CA_8 
REMARK    4  A    between atoms: CA_8  and  CB_9 
REMARK    5  A    between atoms: CA_8  and  C_16 
REMARK    6  A    between atoms: CB_9  and  CG_10 
REMARK    7  A    between atoms: C_16  and  OXT_18 
ROOT
ATOM      1  CA  HIS A   1     -41.700 -51.381  12.123  1.00  0.00     0.188 C 
ENDROOT
BRANCH   1   2
ATOM      2  N   HIS A   1     -42.750 -51.581  13.128  1.00  0.00    -0.346 N 
HETATM    3  C   UNK A   0     -43.719 -52.540  13.005  1.00  0.00     0.218 C 
HETATM    4  O   UNK A   0     -43.769 -53.318  12.058  1.00  0.00    -0.274 OA
ATOM      5  H   HIS A   1     -42.665 -51.037  13.983  1.00  0.00     0.163 HD
BRANCH   3   6
HETATM    6  C   UNK A   0     -44.749 -52.541  14.119  1.00  0.00     0.106 C 
BRANCH   6   7
HETATM    7  C   UNK A   0     -45.797 -51.431  13.948  1.00  0.00    -0.014 C 
HETATM    8  C   UNK A   0     -46.575 -51.595  12.639  1.00  0.00     0.010 C 
HETATM    9  C   UNK A   0     -46.772 -51.425  15.126  1.00  0.00     0.010 C 
ENDBRANCH   6   7
ENDBRANCH   3   6
ENDBRANCH   1   2
BRANCH   1  10
ATOM     10  CB  HIS A   1     -41.115 -49.966  12.163  1.00  0.00     0.094 C 
BRANCH  10  11
ATOM     11  CG  HIS A   1     -41.922 -48.950  11.432  1.00  0.00     0.028 A 
ATOM     12  CD2 HIS A   1     -43.042 -48.257  11.840  1.00  0.00     0.114 A 
ATOM     13  NE2 HIS A   1     -43.391 -47.473  10.777  1.00  0.00    -0.360 N 
ATOM     14  CE1 HIS A   1     -42.496 -47.721   9.777  1.00  0.00     0.180 A 
ATOM     15  HE2 HIS A   1     -44.177 -46.837  10.730  1.00  0.00     0.166 HD
ATOM     16  ND1 HIS A   1     -41.599 -48.608  10.143  1.00  0.00    -0.354 N 
ATOM     17  HD1 HIS A   1     -40.824 -48.967   9.585  1.00  0.00     0.166 HD
ENDBRANCH  10  11
ENDBRANCH   1  10
BRANCH   1  18
ATOM     18  C   HIS A   1     -40.648 -52.483  12.303  1.00  0.00     0.163 C 
ATOM     19  O   HIS A   1     -39.882 -52.526  13.263  1.00  0.00    -0.648 OA
BRANCH  18  20
ATOM     20  OXT HIS A   1     -40.691 -53.477  11.388  1.00  0.00    -0.775 OA
ATOM     21  HXT HIS A   1     -40.278 -54.314  11.667  1.00  0.00     0.167 HD
ENDBRANCH  18  20
ENDBRANCH   1  18
TORSDOF 7
ENDMDL
MODEL 2
REMARK VINA RESULT:      -5.3      4.202      6.066
REMARK  7 active torsions:
REMARK  status: ('A' for Active; 'I' for Inactive)
REMARK    1  A    between atoms: C_2  and  C_4 
REMARK    2  A    between atoms: C_4  and  C_5 
REMARK       I    between atoms: C_5  and  N_7 
REMARK    3  A    between atoms: N_7  and  CA_8 
REMARK    4  A    between atoms: CA_8  and  CB_9 
REMARK    5  A    between atoms: CA_8  and  C_16 
REMARK    6  A    between atoms: CB_9  and  CG_10 
REMARK    7  A    between atoms: C_16  and  OXT_18 
ROOT
ATOM      1  CA  HIS A   1     -41.317 -46.962  10.745  1.00  0.00     0.188 C 
ENDROOT
BRANCH   1   2
ATOM      2  N   HIS A   1     -40.627 -47.622  11.859  1.00  0.00    -0.346 N 
HETATM    3  C   UNK A   0     -40.242 -48.935  11.818  1.00  0.00     0.218 C 
HETATM    4  O   UNK A   0     -40.424 -49.651  10.838  1.00  0.00    -0.274 OA
ATOM      5  H   HIS A   1     -40.351 -47.026  12.636  1.00  0.00     0.163 HD
BRANCH   3   6
HETATM    6  C   UNK A   0     -39.602 -49.445  13.094  1.00  0.00     0.106 C 
BRANCH   6   7
HETATM    7  C   UNK A   0     -38.068 -49.368  13.051  1.00  0.00    -0.014 C 
HETATM    8  C   UNK A   0     -37.492 -48.945  14.405  1.00  0.00     0.010 C 
HETATM    9  C   UNK A   0     -37.473 -50.715  12.640  1.00  0.00     0.010 C 
ENDBRANCH   6   7
ENDBRANCH   3   6
ENDBRANCH   1   2
BRANCH   1  10
ATOM     10  CB  HIS A   1     -42.841 -47.080  10.849  1.00  0.00     0.094 C 
BRANCH  10  11
ATOM     11  CG  HIS A   1     -43.514 -47.446   9.572  1.00  0.00     0.028 A 
ATOM     12  CD2 HIS A   1     -44.857 -47.479   9.264  1.00  0.00     0.114 A 
ATOM     13  NE2 HIS A   1     -44.922 -47.903   7.966  1.00  0.00    -0.360 N 
ATOM     14  CE1 HIS A   1     -43.642 -48.119   7.545  1.00  0.00     0.180 A 
ATOM     15  HE2 HIS A   1     -45.761 -48.047   7.421  1.00  0.00     0.166 HD
ATOM     16  ND1 HIS A   1     -42.771 -47.852   8.492  1.00  0.00    -0.354 N 
ATOM     17  HD1 HIS A   1     -41.755 -47.931   8.435  1.00  0.00     0.166 HD
ENDBRANCH  10  11
ENDBRANCH   1  10
BRANCH   1  18
ATOM     18  C   HIS A   1     -40.820 -45.513  10.666  1.00  0.00     0.163 C 
ATOM     19  O   HIS A   1     -40.895 -44.727  11.607  1.00  0.00    -0.648 OA
BRANCH  18  20
ATOM     20  OXT HIS A   1     -40.187 -45.182   9.518  1.00  0.00    -0.775 OA
ATOM     21  HXT HIS A   1     -39.456 -44.545   9.617  1.00  0.00     0.167 HD
ENDBRANCH  18  20
ENDBRANCH   1  18
TORSDOF 7
ENDMDL
MODEL 3
REMARK VINA RESULT:      -5.2      2.461      2.947
REMARK  7 active torsions:
REMARK  status: ('A' for Active; 'I' for Inactive)
REMARK    1  A    between atoms: C_2  and  C_4 
REMARK    2  A    between atoms: C_4  and  C_5 
REMARK       I    between atoms: C_5  and  N_7 
REMARK    3  A    between atoms: N_7  and  CA_8 
REMARK    4  A    between atoms: CA_8  and  CB_9 
REMARK    5  A    between atoms: CA_8  and  C_16 
REMARK    6  A    between atoms: CB_9  and  CG_10 
REMARK    7  A    between atoms: C_16  and  OXT_18 
ROOT
ATOM      1  CA  HIS A   1     -41.525 -51.837  13.000  1.00  0.00     0.188 C 
ENDROOT
BRANCH   1   2
ATOM      2  N   HIS A   1     -42.679 -51.890  13.905  1.00  0.00    -0.346 N 
HETATM    3  C   UNK A   0     -43.692 -50.970  13.868  1.00  0.00     0.218 C 
HETATM    4  O   UNK A   0     -43.723 -50.047  13.060  1.00  0.00    -0.274 OA
ATOM      5  H   HIS A   1     -42.746 -52.710  14.502  1.00  0.00     0.163 HD
BRANCH   3   6
HETATM    6  C   UNK A   0     -44.758 -51.164  14.929  1.00  0.00     0.106 C 
BRANCH   6   7
HETATM    7  C   UNK A   0     -46.165 -51.295  14.327  1.00  0.00    -0.014 C 
HETATM    8  C   UNK A   0     -46.236 -52.448  13.322  1.00  0.00     0.010 C 
HETATM    9  C   UNK A   0     -47.204 -51.511  15.428  1.00  0.00     0.010 C 
ENDBRANCH   6   7
ENDBRANCH   3   6
ENDBRANCH   1   2
BRANCH   1  10
ATOM     10  CB  HIS A   1     -40.362 -51.028  13.582  1.00  0.00     0.094 C 
BRANCH  10  11
ATOM     11  CG  HIS A   1     -39.369 -50.571  12.571  1.00  0.00     0.028 A 
ATOM     12  CD2 HIS A   1     -39.558 -49.839  11.420  1.00  0.00     0.114 A 
ATOM     13  NE2 HIS A   1     -38.319 -49.720  10.855  1.00  0.00    -0.360 N 
ATOM     14  CE1 HIS A   1     -37.441 -50.382  11.662  1.00  0.00     0.180 A 
ATOM     15  HE2 HIS A   1     -38.094 -49.245   9.991  1.00  0.00     0.166 HD
ATOM     16  ND1 HIS A   1     -38.044 -50.906  12.705  1.00  0.00    -0.354 N 
ATOM     17  HD1 HIS A   1     -37.617 -51.448  13.457  1.00  0.00     0.166 HD
ENDBRANCH  10  11
ENDBRANCH   1  10
BRANCH   1  18
ATOM     18  C   HIS A   1     -41.143 -53.275  12.626  1.00  0.00     0.163 C 
ATOM     19  O   HIS A   1     -41.366 -54.238  13.356  1.00  0.00    -0.648 OA
BRANCH  18  20
ATOM     20  OXT HIS A   1     -40.641 -53.433  11.380  1.00  0.00    -0.775 OA
ATOM     21  HXT HIS A   1     -40.687 -54.340  11.028  1.00  0.00     0.167 HD
ENDBRANCH  18  20
ENDBRANCH   1  18
TORSDOF 7
ENDMDL
MODEL 4
REMARK VINA RESULT:      -5.2      1.688      4.547
REMARK  7 active torsions:
REMARK  status: ('A' for Active; 'I' for Inactive)
REMARK    1  A    between atoms: C_2  and  C_4 
REMARK    2  A    between atoms: C_4  and  C_5 
REMARK       I    between atoms: C_5  and  N_7 
REMARK    3  A    between atoms: N_7  and  CA_8 
REMARK    4  A    between atoms: CA_8  and  CB_9 
REMARK    5  A    between atoms: CA_8  and  C_16 
REMARK    6  A    between atoms: CB_9  and  CG_10 
REMARK    7  A    between atoms: C_16  and  OXT_18 
ROOT
ATOM      1  CA  HIS A   1     -42.001 -52.110  12.700  1.00  0.00     0.188 C 
ENDROOT
BRANCH   1   2
ATOM      2  N   HIS A   1     -42.081 -50.940  11.817  1.00  0.00    -0.346 N 
HETATM    3  C   UNK A   0     -41.747 -49.678  12.227  1.00  0.00     0.218 C 
HETATM    4  O   UNK A   0     -41.333 -49.434  13.357  1.00  0.00    -0.274 OA
ATOM      5  H   HIS A   1     -42.301 -51.126  10.841  1.00  0.00     0.163 HD
BRANCH   3   6
HETATM    6  C   UNK A   0     -41.960 -48.599  11.184  1.00  0.00     0.106 C 
BRANCH   6   7
HETATM    7  C   UNK A   0     -43.160 -47.697  11.512  1.00  0.00    -0.014 C 
HETATM    8  C   UNK A   0     -42.708 -46.365  12.117  1.00  0.00     0.010 C 
HETATM    9  C   UNK A   0     -43.995 -47.434  10.259  1.00  0.00     0.010 C 
ENDBRANCH   6   7
ENDBRANCH   3   6
ENDBRANCH   1   2
BRANCH   1  10
ATOM     10  CB  HIS A   1     -43.228 -53.019  12.577  1.00  0.00     0.094 C 
BRANCH  10  11
ATOM     11  CG  HIS A   1     -44.511 -52.370  12.961  1.00  0.00     0.028 A 
ATOM     12  CD2 HIS A   1     -44.851 -51.712  14.124  1.00  0.00     0.114 A 
ATOM     13  NE2 HIS A   1     -46.154 -51.333  13.961  1.00  0.00    -0.360 N 
ATOM     14  CE1 HIS A   1     -46.555 -51.776  12.734  1.00  0.00     0.180 A 
ATOM     15  HE2 HIS A   1     -46.723 -50.831  14.629  1.00  0.00     0.166 HD
ATOM     16  ND1 HIS A   1     -45.586 -52.405  12.108  1.00  0.00    -0.354 N 
ATOM     17  HD1 HIS A   1     -45.625 -52.831  11.181  1.00  0.00     0.166 HD
ENDBRANCH  10  11
ENDBRANCH   1  10
BRANCH   1  18
ATOM     18  C   HIS A   1     -40.676 -52.830  12.422  1.00  0.00     0.163 C 
ATOM     19  O   HIS A   1     -39.748 -52.857  13.226  1.00  0.00    -0.648 OA
BRANCH  18  20
ATOM     20  OXT HIS A   1     -40.634 -53.537  11.270  1.00  0.00    -0.775 OA
ATOM     21  HXT HIS A   1     -41.224 -53.214  10.565  1.00  0.00     0.167 HD
ENDBRANCH  18  20
ENDBRANCH   1  18
TORSDOF 7
ENDMDL
MODEL 5
REMARK VINA RESULT:      -5.2      4.027      6.984
REMARK  7 active torsions:
REMARK  status: ('A' for Active; 'I' for Inactive)
REMARK    1  A    between atoms: C_2  and  C_4 
REMARK    2  A    between atoms: C_4  and  C_5 
REMARK       I    between atoms: C_5  and  N_7 
REMARK    3  A    between atoms: N_7  and  CA_8 
REMARK    4  A    between atoms: CA_8  and  CB_9 
REMARK    5  A    between atoms: CA_8  and  C_16 
REMARK    6  A    between atoms: CB_9  and  CG_10 
REMARK    7  A    between atoms: C_16  and  OXT_18 
ROOT
ATOM      1  CA  HIS A   1     -42.482 -47.392   9.972  1.00  0.00     0.188 C 
ENDROOT
BRANCH   1   2
ATOM      2  N   HIS A   1     -41.634 -46.201  10.095  1.00  0.00    -0.346 N 
HETATM    3  C   UNK A   0     -40.407 -46.225  10.702  1.00  0.00     0.218 C 
HETATM    4  O   UNK A   0     -39.916 -47.248  11.168  1.00  0.00    -0.274 OA
ATOM      5  H   HIS A   1     -41.956 -45.366   9.612  1.00  0.00     0.163 HD
BRANCH   3   6
HETATM    6  C   UNK A   0     -39.718 -44.877  10.784  1.00  0.00     0.106 C 
BRANCH   6   7
HETATM    7  C   UNK A   0     -40.154 -44.070  12.017  1.00  0.00    -0.014 C 
HETATM    8  C   UNK A   0     -39.058 -44.049  13.085  1.00  0.00     0.010 C 
HETATM    9  C   UNK A   0     -40.513 -42.637  11.623  1.00  0.00     0.010 C 
ENDBRANCH   6   7
ENDBRANCH   3   6
ENDBRANCH   1   2
BRANCH   1  10
ATOM     10  CB  HIS A   1     -43.273 -47.680  11.252  1.00  0.00     0.094 C 
BRANCH  10  11
ATOM     11  CG  HIS A   1     -42.836 -48.905  11.977  1.00  0.00     0.028 A 
ATOM     12  CD2 HIS A   1     -43.235 -49.390  13.204  1.00  0.00     0.114 A 
ATOM     13  NE2 HIS A   1     -42.506 -50.529  13.400  1.00  0.00    -0.360 N 
ATOM     14  CE1 HIS A   1     -41.698 -50.686  12.311  1.00  0.00     0.180 A 
ATOM     15  HE2 HIS A   1     -42.544 -51.137  14.207  1.00  0.00     0.166 HD
ATOM     16  ND1 HIS A   1     -41.875 -49.722  11.436  1.00  0.00    -0.354 N 
ATOM     17  HD1 HIS A   1     -41.397 -49.605  10.543  1.00  0.00     0.166 HD
ENDBRANCH  10  11
ENDBRANCH   1  10
BRANCH   1  18
ATOM     18  C   HIS A   1     -43.368 -47.224   8.731  1.00  0.00     0.163 C 
ATOM     19  O   HIS A   1     -44.446 -47.797   8.596  1.00  0.00    -0.648 OA
BRANCH  18  20
ATOM     20  OXT HIS A   1     -42.937 -46.308   7.835  1.00  0.00    -0.775 OA
ATOM     21  HXT HIS A   1     -43.639 -45.869   7.321  1.00  0.00     0.167 HD
ENDBRANCH  18  20
ENDBRANCH   1  18
TORSDOF 7
ENDMDL
MODEL 6
REMARK VINA RESULT:      -5.2      2.072      3.077
REMARK  7 active torsions:
REMARK  status: ('A' for Active; 'I' for Inactive)
REMARK    1  A    between atoms: C_2  and  C_4 
REMARK    2  A    between atoms: C_4  and  C_5 
REMARK       I    between atoms: C_5  and  N_7 
REMARK    3  A    between atoms: N_7  and  CA_8 
REMARK    4  A    between atoms: CA_8  and  CB_9 
REMARK    5  A    between atoms: CA_8  and  C_16 
REMARK    6  A    between atoms: CB_9  and  CG_10 
REMARK    7  A    between atoms: C_16  and  OXT_18 
ROOT
ATOM      1  CA  HIS A   1     -41.817 -49.353  11.443  1.00  0.00     0.188 C 
ENDROOT
BRANCH   1   2
ATOM      2  N   HIS A   1     -42.172 -50.266  12.535  1.00  0.00    -0.346 N 
HETATM    3  C   UNK A   0     -41.891 -51.605  12.502  1.00  0.00     0.218 C 
HETATM    4  O   UNK A   0     -41.302 -52.138  11.566  1.00  0.00    -0.274 OA
ATOM      5  H   HIS A   1     -42.548 -49.837  13.377  1.00  0.00     0.163 HD
BRANCH   3   6
HETATM    6  C   UNK A   0     -42.398 -52.385  13.699  1.00  0.00     0.106 C 
BRANCH   6   7
HETATM    7  C   UNK A   0     -42.958 -53.761  13.307  1.00  0.00    -0.014 C 
HETATM    8  C   UNK A   0     -43.142 -54.659  14.533  1.00  0.00     0.010 C 
HETATM    9  C   UNK A   0     -44.292 -53.611  12.576  1.00  0.00     0.010 C 
ENDBRANCH   6   7
ENDBRANCH   3   6
ENDBRANCH   1   2
BRANCH   1  10
ATOM     10  CB  HIS A   1     -42.697 -48.100  11.420  1.00  0.00     0.094 C 
BRANCH  10  11
ATOM     11  CG  HIS A   1     -43.338 -47.827  10.104  1.00  0.00     0.028 A 
ATOM     12  CD2 HIS A   1     -44.608 -47.373   9.821  1.00  0.00     0.114 A 
ATOM     13  NE2 HIS A   1     -44.682 -47.322   8.458  1.00  0.00    -0.360 N 
ATOM     14  CE1 HIS A   1     -43.481 -47.749   7.970  1.00  0.00     0.180 A 
ATOM     15  HE2 HIS A   1     -45.481 -47.035   7.908  1.00  0.00     0.166 HD
ATOM     16  ND1 HIS A   1     -42.650 -48.061   8.939  1.00  0.00    -0.354 N 
ATOM     17  HD1 HIS A   1     -41.695 -48.406   8.845  1.00  0.00     0.166 HD
ENDBRANCH  10  11
ENDBRANCH   1  10
BRANCH   1  18
ATOM     18  C   HIS A   1     -40.317 -49.045  11.544  1.00  0.00     0.163 C 
ATOM     19  O   HIS A   1     -39.852 -48.241  12.347  1.00  0.00    -0.648 OA
BRANCH  18  20
ATOM     20  OXT HIS A   1     -39.518 -49.805  10.761  1.00  0.00    -0.775 OA
ATOM     21  HXT HIS A   1     -38.815 -49.319  10.292  1.00  0.00     0.167 HD
ENDBRANCH  18  20
ENDBRANCH   1  18
TORSDOF 7
ENDMDL
MODEL 7
REMARK VINA RESULT:      -5.0      3.380      5.203
REMARK  7 active torsions:
REMARK  status: ('A' for Active; 'I' for Inactive)
REMARK    1  A    between atoms: C_2  and  C_4 
REMARK    2  A    between atoms: C_4  and  C_5 
REMARK       I    between atoms: C_5  and  N_7 
REMARK    3  A    between atoms: N_7  and  CA_8 
REMARK    4  A    between atoms: CA_8  and  CB_9 
REMARK    5  A    between atoms: CA_8  and  C_16 
REMARK    6  A    between atoms: CB_9  and  CG_10 
REMARK    7  A    between atoms: C_16  and  OXT_18 
ROOT
ATOM      1  CA  HIS A   1     -38.589 -49.411  12.300  1.00  0.00     0.188 C 
ENDROOT
BRANCH   1   2
ATOM      2  N   HIS A   1     -39.507 -48.713  11.392  1.00  0.00    -0.346 N 
HETATM    3  C   UNK A   0     -40.021 -47.475  11.668  1.00  0.00     0.218 C 
HETATM    4  O   UNK A   0     -39.735 -46.846  12.682  1.00  0.00    -0.274 OA
ATOM      5  H   HIS A   1     -39.666 -49.150  10.488  1.00  0.00     0.163 HD
BRANCH   3   6
HETATM    6  C   UNK A   0     -41.001 -46.955  10.633  1.00  0.00     0.106 C 
BRANCH   6   7
HETATM    7  C   UNK A   0     -42.254 -47.837  10.519  1.00  0.00    -0.014 C 
HETATM    8  C   UNK A   0     -43.221 -47.585  11.678  1.00  0.00     0.010 C 
HETATM    9  C   UNK A   0     -42.968 -47.588   9.190  1.00  0.00     0.010 C 
ENDBRANCH   6   7
ENDBRANCH   3   6
ENDBRANCH   1   2
BRANCH   1  10
ATOM     10  CB  HIS A   1     -39.328 -50.214  13.374  1.00  0.00     0.094 C 
BRANCH  10  11
ATOM     11  CG  HIS A   1     -40.537 -50.929  12.879  1.00  0.00     0.028 A 
ATOM     12  CD2 HIS A   1     -41.870 -50.665  13.109  1.00  0.00     0.114 A 
ATOM     13  NE2 HIS A   1     -42.555 -51.639  12.437  1.00  0.00    -0.360 N 
ATOM     14  CE1 HIS A   1     -41.631 -52.450  11.845  1.00  0.00     0.180 A 
ATOM     15  HE2 HIS A   1     -43.559 -51.750  12.398  1.00  0.00     0.166 HD
ATOM     16  ND1 HIS A   1     -40.405 -52.047  12.094  1.00  0.00    -0.354 N 
ATOM     17  HD1 HIS A   1     -39.538 -52.476  11.771  1.00  0.00     0.166 HD
ENDBRANCH  10  11
ENDBRANCH   1  10
BRANCH   1  18
ATOM     18  C   HIS A   1     -37.630 -50.258  11.453  1.00  0.00     0.163 C 
ATOM     19  O   HIS A   1     -37.150 -51.318  11.847  1.00  0.00    -0.648 OA
BRANCH  18  20
ATOM     20  OXT HIS A   1     -37.433 -49.818  10.190  1.00  0.00    -0.775 OA
ATOM     21  HXT HIS A   1     -38.191 -49.937   9.588  1.00  0.00     0.167 HD
ENDBRANCH  18  20
ENDBRANCH   1  18
TORSDOF 7
ENDMDL
MODEL 8
REMARK VINA RESULT:      -5.0      4.119      6.680
REMARK  7 active torsions:
REMARK  status: ('A' for Active; 'I' for Inactive)
REMARK    1  A    between atoms: C_2  and  C_4 
REMARK    2  A    between atoms: C_4  and  C_5 
REMARK       I    between atoms: C_5  and  N_7 
REMARK    3  A    between atoms: N_7  and  CA_8 
REMARK    4  A    between atoms: CA_8  and  CB_9 
REMARK    5  A    between atoms: CA_8  and  C_16 
REMARK    6  A    between atoms: CB_9  and  CG_10 
REMARK    7  A    between atoms: C_16  and  OXT_18 
ROOT
ATOM      1  CA  HIS A   1     -42.104 -47.629  10.721  1.00  0.00     0.188 C 
ENDROOT
BRANCH   1   2
ATOM      2  N   HIS A   1     -41.216 -46.465  10.816  1.00  0.00    -0.346 N 
HETATM    3  C   UNK A   0     -41.483 -45.395  11.626  1.00  0.00     0.218 C 
HETATM    4  O   UNK A   0     -42.473 -45.338  12.349  1.00  0.00    -0.274 OA
ATOM      5  H   HIS A   1     -40.327 -46.535  10.327  1.00  0.00     0.163 HD
BRANCH   3   6
HETATM    6  C   UNK A   0     -40.473 -44.267  11.533  1.00  0.00     0.106 C 
BRANCH   6   7
HETATM    7  C   UNK A   0     -40.997 -42.960  12.148  1.00  0.00    -0.014 C 
HETATM    8  C   UNK A   0     -39.867 -42.157  12.797  1.00  0.00     0.010 C 
HETATM    9  C   UNK A   0     -41.689 -42.105  11.087  1.00  0.00     0.010 C 
ENDBRANCH   6   7
ENDBRANCH   3   6
ENDBRANCH   1   2
BRANCH   1  10
ATOM     10  CB  HIS A   1     -42.698 -47.797   9.318  1.00  0.00     0.094 C 
BRANCH  10  11
ATOM     11  CG  HIS A   1     -44.055 -47.209   9.155  1.00  0.00     0.028 A 
ATOM     12  CD2 HIS A   1     -44.424 -45.913   8.864  1.00  0.00     0.114 A 
ATOM     13  NE2 HIS A   1     -45.790 -45.917   8.852  1.00  0.00    -0.360 N 
ATOM     14  CE1 HIS A   1     -46.195 -47.187   9.142  1.00  0.00     0.180 A 
ATOM     15  HE2 HIS A   1     -46.393 -45.123   8.677  1.00  0.00     0.166 HD
ATOM     16  ND1 HIS A   1     -45.171 -47.989   9.330  1.00  0.00    -0.354 N 
ATOM     17  HD1 HIS A   1     -45.200 -48.983   9.558  1.00  0.00     0.166 HD
ENDBRANCH  10  11
ENDBRANCH   1  10
BRANCH   1  18
ATOM     18  C   HIS A   1     -41.334 -48.862  11.210  1.00  0.00     0.163 C 
ATOM     19  O   HIS A   1     -40.123 -48.857  11.414  1.00  0.00    -0.648 OA
BRANCH  18  20
ATOM     20  OXT HIS A   1     -42.098 -49.936  11.514  1.00  0.00    -0.775 OA
ATOM     21  HXT HIS A   1     -41.710 -50.547  12.166  1.00  0.00     0.167 HD
ENDBRANCH  18  20
ENDBRANCH   1  18
TORSDOF 7
ENDMDL
MODEL 9
REMARK VINA RESULT:      -5.0      2.994      3.746
REMARK  7 active torsions:
REMARK  status: ('A' for Active; 'I' for Inactive)
REMARK    1  A    between atoms: C_2  and  C_4 
REMARK    2  A    between atoms: C_4  and  C_5 
REMARK       I    between atoms: C_5  and  N_7 
REMARK    3  A    between atoms: N_7  and  CA_8 
REMARK    4  A    between atoms: CA_8  and  CB_9 
REMARK    5  A    between atoms: CA_8  and  C_16 
REMARK    6  A    between atoms: CB_9  and  CG_10 
REMARK    7  A    between atoms: C_16  and  OXT_18 
ROOT
ATOM      1  CA  HIS A   1     -39.205 -50.049  11.674  1.00  0.00     0.188 C 
ENDROOT
BRANCH   1   2
ATOM      2  N   HIS A   1     -39.678 -50.846  12.811  1.00  0.00    -0.346 N 
HETATM    3  C   UNK A   0     -40.668 -51.784  12.698  1.00  0.00     0.218 C 
HETATM    4  O   UNK A   0     -41.219 -52.044  11.632  1.00  0.00    -0.274 OA
ATOM      5  H   HIS A   1     -39.160 -50.743  13.680  1.00  0.00     0.163 HD
BRANCH   3   6
HETATM    6  C   UNK A   0     -41.056 -52.452  14.003  1.00  0.00     0.106 C 
BRANCH   6   7
HETATM    7  C   UNK A   0     -40.951 -53.983  13.930  1.00  0.00    -0.014 C 
HETATM    8  C   UNK A   0     -39.492 -54.444  13.980  1.00  0.00     0.010 C 
HETATM    9  C   UNK A   0     -41.732 -54.631  15.073  1.00  0.00     0.010 C 
ENDBRANCH   6   7
ENDBRANCH   3   6
ENDBRANCH   1   2
BRANCH   1  10
ATOM     10  CB  HIS A   1     -39.406 -48.546  11.889  1.00  0.00     0.094 C 
BRANCH  10  11
ATOM     11  CG  HIS A   1     -40.683 -48.015  11.337  1.00  0.00     0.028 A 
ATOM     12  CD2 HIS A   1     -41.486 -46.997  11.801  1.00  0.00     0.114 A 
ATOM     13  NE2 HIS A   1     -42.541 -46.940  10.933  1.00  0.00    -0.360 N 
ATOM     14  CE1 HIS A   1     -42.349 -47.915   9.998  1.00  0.00     0.180 A 
ATOM     15  HE2 HIS A   1     -43.327 -46.305  10.982  1.00  0.00     0.166 HD
ATOM     16  ND1 HIS A   1     -41.237 -48.580  10.215  1.00  0.00    -0.354 N 
ATOM     17  HD1 HIS A   1     -40.865 -49.355   9.665  1.00  0.00     0.166 HD
ENDBRANCH  10  11
ENDBRANCH   1  10
BRANCH   1  18
ATOM     18  C   HIS A   1     -37.747 -50.436  11.390  1.00  0.00     0.163 C 
ATOM     19  O   HIS A   1     -37.110 -51.210  12.101  1.00  0.00    -0.648 OA
BRANCH  18  20
ATOM     20  OXT HIS A   1     -37.238 -49.956  10.234  1.00  0.00    -0.775 OA
ATOM     21  HXT HIS A   1     -36.266 -49.876  10.212  1.00  0.00     0.167 HD
ENDBRANCH  18  20
ENDBRANCH   1  18
TORSDOF 7
ENDMDL
