MODEL 1
REMARK VINA RESULT:      -5.4      0.000      0.000
REMARK  5 active torsions:
REMARK  status: ('A' for Active; 'I' for Inactive)
REMARK    1  A    between atoms: C_2  and  C_3 
REMARK    2  A    between atoms: C_6  and  C_7 
REMARK    3  A    between atoms: C_7  and  C_8 
REMARK    4  A    between atoms: C_8  and  N_9 
REMARK       I    between atoms: N_9  and  C_10 
REMARK    5  A    between atoms: C_10  and  C_12 
ROOT
HETATM    1  C   UNL     1     -41.500 -51.919  12.255  1.00  0.00     0.084 C 
ENDROOT
BRANCH   1   2
HETATM    2  C   UNL     1     -42.868 -52.404  12.629  1.00  0.00     0.053 A 
HETATM    3  N   UNL     1     -43.967 -51.688  12.532  1.00  0.00    -0.356 N 
HETATM    4  C   UNL     1     -45.056 -52.410  12.984  1.00  0.00     0.022 A 
ATOM      5  HN  UNL     1     -44.010 -50.734  12.173  1.00  0.00     0.166 HD
HETATM    6  C   UNL     1     -44.768 -53.701  13.393  1.00  0.00     0.003 A 
HETATM    7  S   UNL     1     -43.086 -53.996  13.230  1.00  0.00    -0.080 SA
HETATM    8  C   UNL     1     -45.685 -54.750  13.913  1.00  0.00     0.058 C 
BRANCH   4   9
HETATM    9  C   UNL     1     -46.389 -51.732  12.974  1.00  0.00     0.054 C 
HETATM   10  C   UNL     1     -47.056 -51.802  11.610  1.00  0.00     0.011 C 
ENDBRANCH   4   9
ENDBRANCH   1   2
BRANCH   1  11
HETATM   11  C   UNL     1     -41.176 -50.586  12.932  1.00  0.00     0.129 C 
BRANCH  11  12
HETATM   12  N   UNL     1     -40.964 -49.511  11.975  1.00  0.00    -0.360 N 
HETATM   13  C   UNL     1     -41.998 -48.685  11.591  1.00  0.00     0.224 C 
HETATM   14  O   UNL     1     -43.133 -48.784  12.047  1.00  0.00    -0.273 OA
HETATM   15  H   UNL     1     -40.062 -49.438  11.522  1.00  0.00     0.162 HD
BRANCH  13  16
HETATM   16  C   UNL     1     -41.608 -47.660  10.547  1.00  0.00     0.103 C 
HETATM   17  C   UNL     1     -40.483 -46.751  11.002  1.00  0.00     0.042 C 
HETATM   18  C   UNL     1     -40.851 -45.379  10.464  1.00  0.00     0.168 C 
HETATM   19  O   UNL     1     -42.089 -45.508   9.761  1.00  0.00    -0.390 OA
HETATM   20  C   UNL     1     -42.731 -46.691  10.248  1.00  0.00     0.181 C 
ENDBRANCH  13  16
ENDBRANCH  11  12
ENDBRANCH   1  11
TORSDOF 5
ENDMDL
MODEL 2
REMARK VINA RESULT:      -5.3      3.206      6.899
REMARK  5 active torsions:
REMARK  status: ('A' for Active; 'I' for Inactive)
REMARK    1  A    between atoms: C_2  and  C_3 
REMARK    2  A    between atoms: C_6  and  C_7 
REMARK    3  A    between atoms: C_7  and  C_8 
REMARK    4  A    between atoms: C_8  and  N_9 
REMARK       I    between atoms: N_9  and  C_10 
REMARK    5  A    between atoms: C_10  and  C_12 
ROOT
HETATM    1  C   UNL     1     -40.944 -50.957  12.652  1.00  0.00     0.084 C 
ENDROOT
BRANCH   1   2
HETATM    2  C   UNL     1     -41.054 -49.647  11.933  1.00  0.00     0.053 A 
HETATM    3  N   UNL     1     -42.016 -49.334  11.094  1.00  0.00    -0.356 N 
HETATM    4  C   UNL     1     -41.814 -48.066  10.578  1.00  0.00     0.022 A 
ATOM      5  HN  UNL     1     -42.801 -49.940  10.856  1.00  0.00     0.166 HD
HETATM    6  C   UNL     1     -40.700 -47.409  11.069  1.00  0.00     0.003 A 
HETATM    7  S   UNL     1     -39.876 -48.423  12.181  1.00  0.00    -0.080 SA
HETATM    8  C   UNL     1     -40.195 -46.046  10.754  1.00  0.00     0.058 C 
BRANCH   4   9
HETATM    9  C   UNL     1     -42.804 -47.561   9.576  1.00  0.00     0.054 C 
HETATM   10  C   UNL     1     -44.199 -47.432  10.165  1.00  0.00     0.011 C 
ENDBRANCH   4   9
ENDBRANCH   1   2
BRANCH   1  11
HETATM   11  C   UNL     1     -41.324 -52.126  11.742  1.00  0.00     0.129 C 
BRANCH  11  12
HETATM   12  N   UNL     1     -42.690 -52.580  11.957  1.00  0.00    -0.360 N 
HETATM   13  C   UNL     1     -42.968 -53.618  12.819  1.00  0.00     0.224 C 
HETATM   14  O   UNL     1     -42.101 -54.192  13.471  1.00  0.00    -0.273 OA
HETATM   15  H   UNL     1     -43.427 -52.182  11.388  1.00  0.00     0.162 HD
BRANCH  13  16
HETATM   16  C   UNL     1     -44.433 -53.993  12.874  1.00  0.00     0.103 C 
HETATM   17  C   UNL     1     -45.342 -52.797  13.083  1.00  0.00     0.042 C 
HETATM   18  C   UNL     1     -46.424 -53.291  14.027  1.00  0.00     0.168 C 
HETATM   19  O   UNL     1     -46.145 -54.661  14.326  1.00  0.00    -0.390 OA
HETATM   20  C   UNL     1     -44.755 -54.877  14.059  1.00  0.00     0.181 C 
ENDBRANCH  13  16
ENDBRANCH  11  12
ENDBRANCH   1  11
TORSDOF 5
ENDMDL
MODEL 3
REMARK VINA RESULT:      -4.9      2.698      3.975
REMARK  5 active torsions:
REMARK  status: ('A' for Active; 'I' for Inactive)
REMARK    1  A    between atoms: C_2  and  C_3 
REMARK    2  A    between atoms: C_6  and  C_7 
REMARK    3  A    between atoms: C_7  and  C_8 
REMARK    4  A    between atoms: C_8  and  N_9 
REMARK       I    between atoms: N_9  and  C_10 
REMARK    5  A    between atoms: C_10  and  C_12 
ROOT
HETATM    1  C   UNL     1     -41.207 -49.281  11.329  1.00  0.00     0.084 C 
ENDROOT
BRANCH   1   2
HETATM    2  C   UNL     1     -41.375 -50.494  12.193  1.00  0.00     0.053 A 
HETATM    3  N   UNL     1     -42.113 -51.536  11.882  1.00  0.00    -0.356 N 
HETATM    4  C   UNL     1     -42.083 -52.472  12.900  1.00  0.00     0.022 A 
ATOM      5  HN  UNL     1     -42.636 -51.641  11.012  1.00  0.00     0.166 HD
HETATM    6  C   UNL     1     -41.278 -52.136  13.975  1.00  0.00     0.003 A 
HETATM    7  S   UNL     1     -40.571 -50.596  13.706  1.00  0.00    -0.080 SA
HETATM    8  C   UNL     1     -41.000 -52.902  15.219  1.00  0.00     0.058 C 
BRANCH   4   9
HETATM    9  C   UNL     1     -42.899 -53.713  12.724  1.00  0.00     0.054 C 
HETATM   10  C   UNL     1     -44.391 -53.420  12.713  1.00  0.00     0.011 C 
ENDBRANCH   4   9
ENDBRANCH   1   2
BRANCH   1  11
HETATM   11  C   UNL     1     -42.328 -48.268  11.566  1.00  0.00     0.129 C 
BRANCH  11  12
HETATM   12  N   UNL     1     -43.289 -48.233  10.474  1.00  0.00    -0.360 N 
HETATM   13  C   UNL     1     -43.436 -47.109   9.691  1.00  0.00     0.224 C 
HETATM   14  O   UNL     1     -42.757 -46.099   9.843  1.00  0.00    -0.273 OA
HETATM   15  H   UNL     1     -43.918 -49.018  10.358  1.00  0.00     0.162 HD
BRANCH  13  16
HETATM   16  C   UNL     1     -44.520 -47.231   8.642  1.00  0.00     0.103 C 
HETATM   17  C   UNL     1     -45.828 -47.756   9.200  1.00  0.00     0.042 C 
HETATM   18  C   UNL     1     -46.365 -48.684   8.125  1.00  0.00     0.168 C 
HETATM   19  O   UNL     1     -45.429 -48.682   7.044  1.00  0.00    -0.390 OA
HETATM   20  C   UNL     1     -44.172 -48.245   7.574  1.00  0.00     0.181 C 
ENDBRANCH  13  16
ENDBRANCH  11  12
ENDBRANCH   1  11
TORSDOF 5
ENDMDL
MODEL 4
REMARK VINA RESULT:      -4.7      3.374      6.717
REMARK  5 active torsions:
REMARK  status: ('A' for Active; 'I' for Inactive)
REMARK    1  A    between atoms: C_2  and  C_3 
REMARK    2  A    between atoms: C_6  and  C_7 
REMARK    3  A    between atoms: C_7  and  C_8 
REMARK    4  A    between atoms: C_8  and  N_9 
REMARK       I    between atoms: N_9  and  C_10 
REMARK    5  A    between atoms: C_10  and  C_12 
ROOT
HETATM    1  C   UNL     1     -43.207 -49.225  13.721  1.00  0.00     0.084 C 
ENDROOT
BRANCH   1   2
HETATM    2  C   UNL     1     -42.829 -48.378  12.544  1.00  0.00     0.053 A 
HETATM    3  N   UNL     1     -43.374 -48.473  11.351  1.00  0.00    -0.356 N 
HETATM    4  C   UNL     1     -42.785 -47.575  10.479  1.00  0.00     0.022 A 
ATOM      5  HN  UNL     1     -44.124 -49.118  11.103  1.00  0.00     0.166 HD
HETATM    6  C   UNL     1     -41.809 -46.771  11.043  1.00  0.00     0.003 A 
HETATM    7  S   UNL     1     -41.611 -47.179  12.697  1.00  0.00    -0.080 SA
HETATM    8  C   UNL     1     -40.993 -45.699  10.413  1.00  0.00     0.058 C 
BRANCH   4   9
HETATM    9  C   UNL     1     -43.265 -47.570   9.062  1.00  0.00     0.054 C 
HETATM   10  C   UNL     1     -44.319 -46.503   8.818  1.00  0.00     0.011 C 
ENDBRANCH   4   9
ENDBRANCH   1   2
BRANCH   1  11
HETATM   11  C   UNL     1     -43.806 -50.560  13.279  1.00  0.00     0.129 C 
BRANCH  11  12
HETATM   12  N   UNL     1     -42.850 -51.654  13.355  1.00  0.00    -0.360 N 
HETATM   13  C   UNL     1     -43.157 -52.904  12.862  1.00  0.00     0.224 C 
HETATM   14  O   UNL     1     -44.222 -53.158  12.310  1.00  0.00    -0.273 OA
HETATM   15  H   UNL     1     -41.987 -51.508  13.864  1.00  0.00     0.162 HD
BRANCH  13  16
HETATM   16  C   UNL     1     -42.067 -53.932  13.078  1.00  0.00     0.103 C 
HETATM   17  C   UNL     1     -41.842 -54.258  14.542  1.00  0.00     0.042 C 
HETATM   18  C   UNL     1     -40.338 -54.408  14.680  1.00  0.00     0.168 C 
HETATM   19  O   UNL     1     -39.760 -54.182  13.392  1.00  0.00    -0.390 OA
HETATM   20  C   UNL     1     -40.711 -53.433  12.627  1.00  0.00     0.181 C 
ENDBRANCH  13  16
ENDBRANCH  11  12
ENDBRANCH   1  11
TORSDOF 5
ENDMDL
MODEL 5
REMARK VINA RESULT:      -4.6      1.510      1.938
REMARK  5 active torsions:
REMARK  status: ('A' for Active; 'I' for Inactive)
REMARK    1  A    between atoms: C_2  and  C_3 
REMARK    2  A    between atoms: C_6  and  C_7 
REMARK    3  A    between atoms: C_7  and  C_8 
REMARK    4  A    between atoms: C_8  and  N_9 
REMARK       I    between atoms: N_9  and  C_10 
REMARK    5  A    between atoms: C_10  and  C_12 
ROOT
HETATM    1  C   UNL     1     -42.128 -50.285  12.562  1.00  0.00     0.084 C 
ENDROOT
BRANCH   1   2
HETATM    2  C   UNL     1     -43.204 -51.286  12.852  1.00  0.00     0.053 A 
HETATM    3  N   UNL     1     -44.467 -50.986  13.063  1.00  0.00    -0.356 N 
HETATM    4  C   UNL     1     -45.197 -52.129  13.333  1.00  0.00     0.022 A 
ATOM      5  HN  UNL     1     -44.854 -50.042  13.033  1.00  0.00     0.166 HD
HETATM    6  C   UNL     1     -44.472 -53.307  13.286  1.00  0.00     0.003 A 
HETATM    7  S   UNL     1     -42.831 -52.960  12.925  1.00  0.00    -0.080 SA
HETATM    8  C   UNL     1     -44.931 -54.705  13.503  1.00  0.00     0.058 C 
BRANCH   4   9
HETATM    9  C   UNL     1     -46.654 -51.966  13.630  1.00  0.00     0.054 C 
HETATM   10  C   UNL     1     -46.895 -51.408  15.023  1.00  0.00     0.011 C 
ENDBRANCH   4   9
ENDBRANCH   1   2
BRANCH   1  11
HETATM   11  C   UNL     1     -42.687 -48.861  12.521  1.00  0.00     0.129 C 
BRANCH  11  12
HETATM   12  N   UNL     1     -41.650 -47.860  12.326  1.00  0.00    -0.360 N 
HETATM   13  C   UNL     1     -41.270 -47.466  11.061  1.00  0.00     0.224 C 
HETATM   14  O   UNL     1     -41.794 -47.903  10.042  1.00  0.00    -0.273 OA
HETATM   15  H   UNL     1     -41.143 -47.524  13.135  1.00  0.00     0.162 HD
BRANCH  13  16
HETATM   16  C   UNL     1     -40.140 -46.459  11.047  1.00  0.00     0.103 C 
HETATM   17  C   UNL     1     -39.696 -46.047  12.438  1.00  0.00     0.042 C 
HETATM   18  C   UNL     1     -39.409 -44.560  12.330  1.00  0.00     0.168 C 
HETATM   19  O   UNL     1     -39.671 -44.166  10.981  1.00  0.00    -0.390 OA
HETATM   20  C   UNL     1     -40.549 -45.146  10.417  1.00  0.00     0.181 C 
ENDBRANCH  13  16
ENDBRANCH  11  12
ENDBRANCH   1  11
TORSDOF 5
ENDMDL
MODEL 6
REMARK VINA RESULT:      -4.6      3.337      5.505
REMARK  5 active torsions:
REMARK  status: ('A' for Active; 'I' for Inactive)
REMARK    1  A    between atoms: C_2  and  C_3 
REMARK    2  A    between atoms: C_6  and  C_7 
REMARK    3  A    between atoms: C_7  and  C_8 
REMARK    4  A    between atoms: C_8  and  N_9 
REMARK       I    between atoms: N_9  and  C_10 
REMARK    5  A    between atoms: C_10  and  C_12 
ROOT
HETATM    1  C   UNL     1     -42.535 -49.420  12.776  1.00  0.00     0.084 C 
ENDROOT
BRANCH   1   2
HETATM    2  C   UNL     1     -43.703 -50.164  13.348  1.00  0.00     0.053 A 
HETATM    3  N   UNL     1     -44.585 -50.830  12.636  1.00  0.00    -0.356 N 
HETATM    4  C   UNL     1     -45.554 -51.379  13.456  1.00  0.00     0.022 A 
ATOM      5  HN  UNL     1     -44.559 -50.929  11.621  1.00  0.00     0.166 HD
HETATM    6  C   UNL     1     -45.371 -51.147  14.808  1.00  0.00     0.003 A 
HETATM    7  S   UNL     1     -43.965 -50.193  15.044  1.00  0.00    -0.080 SA
HETATM    8  C   UNL     1     -46.196 -51.596  15.961  1.00  0.00     0.058 C 
BRANCH   4   9
HETATM    9  C   UNL     1     -46.660 -52.147  12.804  1.00  0.00     0.054 C 
HETATM   10  C   UNL     1     -47.041 -51.566  11.453  1.00  0.00     0.011 C 
ENDBRANCH   4   9
ENDBRANCH   1   2
BRANCH   1  11
HETATM   11  C   UNL     1     -41.447 -50.378  12.289  1.00  0.00     0.129 C 
BRANCH  11  12
HETATM   12  N   UNL     1     -41.564 -51.703  12.879  1.00  0.00    -0.360 N 
HETATM   13  C   UNL     1     -40.473 -52.540  12.971  1.00  0.00     0.224 C 
HETATM   14  O   UNL     1     -39.351 -52.214  12.598  1.00  0.00    -0.273 OA
HETATM   15  H   UNL     1     -42.484 -52.038  13.136  1.00  0.00     0.162 HD
BRANCH  13  16
HETATM   16  C   UNL     1     -40.791 -53.898  13.560  1.00  0.00     0.103 C 
HETATM   17  C   UNL     1     -42.281 -54.163  13.665  1.00  0.00     0.042 C 
HETATM   18  C   UNL     1     -42.452 -54.894  14.985  1.00  0.00     0.168 C 
HETATM   19  O   UNL     1     -41.158 -55.029  15.576  1.00  0.00    -0.390 OA
HETATM   20  C   UNL     1     -40.319 -54.027  14.991  1.00  0.00     0.181 C 
ENDBRANCH  13  16
ENDBRANCH  11  12
ENDBRANCH   1  11
TORSDOF 5
ENDMDL
MODEL 7
REMARK VINA RESULT:      -4.6      3.245      7.257
REMARK  5 active torsions:
REMARK  status: ('A' for Active; 'I' for Inactive)
REMARK    1  A    between atoms: C_2  and  C_3 
REMARK    2  A    between atoms: C_6  and  C_7 
REMARK    3  A    between atoms: C_7  and  C_8 
REMARK    4  A    between atoms: C_8  and  N_9 
REMARK       I    between atoms: N_9  and  C_10 
REMARK    5  A    between atoms: C_10  and  C_12 
ROOT
HETATM    1  C   UNL     1     -42.142 -48.979  11.695  1.00  0.00     0.084 C 
ENDROOT
BRANCH   1   2
HETATM    2  C   UNL     1     -40.717 -48.963  12.158  1.00  0.00     0.053 A 
HETATM    3  N   UNL     1     -39.772 -49.751  11.694  1.00  0.00    -0.356 N 
HETATM    4  C   UNL     1     -38.577 -49.509  12.346  1.00  0.00     0.022 A 
ATOM      5  HN  UNL     1     -39.903 -50.445  10.958  1.00  0.00     0.166 HD
HETATM    6  C   UNL     1     -38.624 -48.496  13.289  1.00  0.00     0.003 A 
HETATM    7  S   UNL     1     -40.214 -47.859  13.372  1.00  0.00    -0.080 SA
HETATM    8  C   UNL     1     -37.537 -47.964  14.153  1.00  0.00     0.058 C 
BRANCH   4   9
HETATM    9  C   UNL     1     -37.397 -50.345  11.963  1.00  0.00     0.054 C 
HETATM   10  C   UNL     1     -36.939 -50.070  10.541  1.00  0.00     0.011 C 
ENDBRANCH   4   9
ENDBRANCH   1   2
BRANCH   1  11
HETATM   11  C   UNL     1     -43.104 -49.217  12.860  1.00  0.00     0.129 C 
BRANCH  11  12
HETATM   12  N   UNL     1     -43.951 -50.382  12.655  1.00  0.00    -0.360 N 
HETATM   13  C   UNL     1     -44.606 -50.981  13.709  1.00  0.00     0.224 C 
HETATM   14  O   UNL     1     -44.542 -50.558  14.859  1.00  0.00    -0.273 OA
HETATM   15  H   UNL     1     -43.977 -50.806  11.736  1.00  0.00     0.162 HD
BRANCH  13  16
HETATM   16  C   UNL     1     -45.395 -52.213  13.321  1.00  0.00     0.103 C 
HETATM   17  C   UNL     1     -45.786 -53.066  14.512  1.00  0.00     0.042 C 
HETATM   18  C   UNL     1     -45.626 -54.498  14.034  1.00  0.00     0.168 C 
HETATM   19  O   UNL     1     -45.179 -54.453  12.676  1.00  0.00    -0.390 OA
HETATM   20  C   UNL     1     -44.588 -53.166  12.468  1.00  0.00     0.181 C 
ENDBRANCH  13  16
ENDBRANCH  11  12
ENDBRANCH   1  11
TORSDOF 5
ENDMDL
MODEL 8
REMARK VINA RESULT:      -4.6      3.129      4.079
REMARK  5 active torsions:
REMARK  status: ('A' for Active; 'I' for Inactive)
REMARK    1  A    between atoms: C_2  and  C_3 
REMARK    2  A    between atoms: C_6  and  C_7 
REMARK    3  A    between atoms: C_7  and  C_8 
REMARK    4  A    between atoms: C_8  and  N_9 
REMARK       I    between atoms: N_9  and  C_10 
REMARK    5  A    between atoms: C_10  and  C_12 
ROOT
HETATM    1  C   UNL     1     -42.167 -49.543  12.489  1.00  0.00     0.084 C 
ENDROOT
BRANCH   1   2
HETATM    2  C   UNL     1     -43.106 -50.683  12.737  1.00  0.00     0.053 A 
HETATM    3  N   UNL     1     -44.400 -50.555  12.935  1.00  0.00    -0.356 N 
HETATM    4  C   UNL     1     -44.978 -51.790  13.165  1.00  0.00     0.022 A 
ATOM      5  HN  UNL     1     -44.906 -49.670  12.922  1.00  0.00     0.166 HD
HETATM    6  C   UNL     1     -44.105 -52.862  13.101  1.00  0.00     0.003 A 
HETATM    7  S   UNL     1     -42.519 -52.295  12.775  1.00  0.00    -0.080 SA
HETATM    8  C   UNL     1     -44.381 -54.313  13.276  1.00  0.00     0.058 C 
BRANCH   4   9
HETATM    9  C   UNL     1     -46.448 -51.826  13.443  1.00  0.00     0.054 C 
HETATM   10  C   UNL     1     -46.775 -51.352  14.849  1.00  0.00     0.011 C 
ENDBRANCH   4   9
ENDBRANCH   1   2
BRANCH   1  11
HETATM   11  C   UNL     1     -40.918 -50.002  11.736  1.00  0.00     0.129 C 
BRANCH  11  12
HETATM   12  N   UNL     1     -39.686 -49.570  12.380  1.00  0.00    -0.360 N 
HETATM   13  C   UNL     1     -38.796 -50.485  12.899  1.00  0.00     0.224 C 
HETATM   14  O   UNL     1     -38.967 -51.697  12.823  1.00  0.00    -0.273 OA
HETATM   15  H   UNL     1     -39.539 -48.579  12.526  1.00  0.00     0.162 HD
BRANCH  13  16
HETATM   16  C   UNL     1     -37.600 -49.856  13.581  1.00  0.00     0.103 C 
HETATM   17  C   UNL     1     -37.396 -50.356  14.998  1.00  0.00     0.042 C 
HETATM   18  C   UNL     1     -36.964 -49.131  15.784  1.00  0.00     0.168 C 
HETATM   19  O   UNL     1     -36.928 -48.026  14.878  1.00  0.00    -0.390 OA
HETATM   20  C   UNL     1     -37.765 -48.363  13.766  1.00  0.00     0.181 C 
ENDBRANCH  13  16
ENDBRANCH  11  12
ENDBRANCH   1  11
TORSDOF 5
ENDMDL
MODEL 9
REMARK VINA RESULT:      -4.5      2.782      3.659
REMARK  5 active torsions:
REMARK  status: ('A' for Active; 'I' for Inactive)
REMARK    1  A    between atoms: C_2  and  C_3 
REMARK    2  A    between atoms: C_6  and  C_7 
REMARK    3  A    between atoms: C_7  and  C_8 
REMARK    4  A    between atoms: C_8  and  N_9 
REMARK       I    between atoms: N_9  and  C_10 
REMARK    5  A    between atoms: C_10  and  C_12 
ROOT
HETATM    1  C   UNL     1     -39.881 -49.584  12.839  1.00  0.00     0.084 C 
ENDROOT
BRANCH   1   2
HETATM    2  C   UNL     1     -39.924 -51.020  13.265  1.00  0.00     0.053 A 
HETATM    3  N   UNL     1     -40.808 -51.898  12.845  1.00  0.00    -0.356 N 
HETATM    4  C   UNL     1     -40.595 -53.125  13.447  1.00  0.00     0.022 A 
ATOM      5  HN  UNL     1     -41.548 -51.701  12.171  1.00  0.00     0.166 HD
HETATM    6  C   UNL     1     -39.509 -53.171  14.304  1.00  0.00     0.003 A 
HETATM    7  S   UNL     1     -38.763 -51.628  14.373  1.00  0.00    -0.080 SA
HETATM    8  C   UNL     1     -38.983 -54.315  15.096  1.00  0.00     0.058 C 
BRANCH   4   9
HETATM    9  C   UNL     1     -41.537 -54.236  13.106  1.00  0.00     0.054 C 
HETATM   10  C   UNL     1     -42.744 -54.266  14.029  1.00  0.00     0.011 C 
ENDBRANCH   4   9
ENDBRANCH   1   2
BRANCH   1  11
HETATM   11  C   UNL     1     -40.269 -49.426  11.368  1.00  0.00     0.129 C 
BRANCH  11  12
HETATM   12  N   UNL     1     -40.299 -48.035  10.945  1.00  0.00    -0.360 N 
HETATM   13  C   UNL     1     -41.493 -47.378  10.743  1.00  0.00     0.224 C 
HETATM   14  O   UNL     1     -42.584 -47.905  10.935  1.00  0.00    -0.273 OA
HETATM   15  H   UNL     1     -39.425 -47.583  10.707  1.00  0.00     0.162 HD
BRANCH  13  16
HETATM   16  C   UNL     1     -41.334 -45.956  10.250  1.00  0.00     0.103 C 
HETATM   17  C   UNL     1     -39.968 -45.373  10.555  1.00  0.00     0.042 C 
HETATM   18  C   UNL     1     -40.239 -43.928  10.936  1.00  0.00     0.168 C 
HETATM   19  O   UNL     1     -41.650 -43.715  10.851  1.00  0.00    -0.390 OA
HETATM   20  C   UNL     1     -42.277 -44.998  10.945  1.00  0.00     0.181 C 
ENDBRANCH  13  16
ENDBRANCH  11  12
ENDBRANCH   1  11
TORSDOF 5
ENDMDL
