MODEL 1
REMARK VINA RESULT:      -5.0      0.000      0.000
REMARK  3 active torsions:
REMARK  status: ('A' for Active; 'I' for Inactive)
REMARK    1  A    between atoms: N_5  and  C_6 
REMARK    2  A    between atoms: C_6  and  C_7 
REMARK    3  A    between atoms: C_10  and  N_14 
ROOT
HETATM    1  C   UNL     3     -44.950 -54.621  14.020  1.00  0.00    -0.015 A 
HETATM    2  C   UNL     3     -43.913 -54.922  14.912  1.00  0.00     0.014 A 
HETATM    3  C   UNL     3     -42.598 -54.599  14.596  1.00  0.00     0.049 A 
HETATM    4  C   UNL     3     -42.305 -53.946  13.389  1.00  0.00     0.103 A 
HETATM    5  N   UNL     3     -43.333 -53.663  12.534  1.00  0.00    -0.352 N 
ATOM      6  HN  UNL     3     -43.126 -53.182  11.659  1.00  0.00     0.166 HD
HETATM    7  C   UNL     3     -44.625 -53.998  12.806  1.00  0.00     0.098 A 
ENDROOT
BRANCH   4   8
HETATM    8  N   UNL     3     -40.972 -53.535  13.054  1.00  0.00    -0.363 N 
HETATM    9  C   UNL     3     -39.801 -54.166  13.649  1.00  0.00     0.150 C 
HETATM   10  C   UNL     3     -38.913 -53.077  14.256  1.00  0.00     0.187 C 
HETATM   11  O   UNL     3     -38.581 -52.103  13.278  1.00  0.00    -0.388 OA
HETATM   12  C   UNL     3     -39.760 -51.461  12.819  1.00  0.00     0.187 C 
HETATM   13  C   UNL     3     -40.681 -52.465  12.110  1.00  0.00     0.150 C 
ENDBRANCH   4   8
BRANCH   1  14
HETATM   14  C   UNL     3     -46.379 -54.944  14.373  1.00  0.00     0.306 C 
BRANCH  14  15
HETATM   15  N   UNL     3     -47.210 -53.737  14.373  1.00  0.00     0.082 N 
HETATM   16  H   UNL     3     -47.053 -53.206  13.486  1.00  0.00     0.313 HD
HETATM   17  H   UNL     3     -48.229 -53.950  14.452  1.00  0.00     0.313 HD
ENDBRANCH  14  15
ENDBRANCH   1  14
TORSDOF 3
ENDMDL
MODEL 2
REMARK VINA RESULT:      -4.8      7.353      8.048
REMARK  3 active torsions:
REMARK  status: ('A' for Active; 'I' for Inactive)
REMARK    1  A    between atoms: N_5  and  C_6 
REMARK    2  A    between atoms: C_6  and  C_7 
REMARK    3  A    between atoms: C_10  and  N_14 
ROOT
HETATM    1  C   UNL     3     -44.515 -47.401   9.328  1.00  0.00    -0.015 A 
HETATM    2  C   UNL     3     -44.148 -47.753  10.633  1.00  0.00     0.014 A 
HETATM    3  C   UNL     3     -42.911 -47.371  11.143  1.00  0.00     0.049 A 
HETATM    4  C   UNL     3     -42.032 -46.608  10.359  1.00  0.00     0.103 A 
HETATM    5  N   UNL     3     -42.412 -46.277   9.088  1.00  0.00    -0.352 N 
ATOM      6  HN  UNL     3     -41.779 -45.716   8.518  1.00  0.00     0.166 HD
HETATM    7  C   UNL     3     -43.603 -46.666   8.555  1.00  0.00     0.098 A 
ENDROOT
BRANCH   4   8
HETATM    8  N   UNL     3     -40.778 -46.136  10.870  1.00  0.00    -0.363 N 
HETATM    9  C   UNL     3     -39.986 -46.921  11.808  1.00  0.00     0.150 C 
HETATM   10  C   UNL     3     -39.670 -46.053  13.028  1.00  0.00     0.187 C 
HETATM   11  O   UNL     3     -39.029 -44.851  12.631  1.00  0.00    -0.388 OA
HETATM   12  C   UNL     3     -39.896 -44.093  11.803  1.00  0.00     0.187 C 
HETATM   13  C   UNL     3     -40.199 -44.851  10.503  1.00  0.00     0.150 C 
ENDBRANCH   4   8
BRANCH   1  14
HETATM   14  C   UNL     3     -45.864 -47.789   8.783  1.00  0.00     0.306 C 
BRANCH  14  15
HETATM   15  N   UNL     3     -45.735 -48.522   7.520  1.00  0.00     0.082 N 
HETATM   16  H   UNL     3     -45.453 -49.509   7.718  1.00  0.00     0.313 HD
HETATM   17  H   UNL     3     -46.624 -48.538   6.972  1.00  0.00     0.313 HD
ENDBRANCH  14  15
ENDBRANCH   1  14
TORSDOF 3
ENDMDL
MODEL 3
REMARK VINA RESULT:      -4.8      3.338      5.899
REMARK  3 active torsions:
REMARK  status: ('A' for Active; 'I' for Inactive)
REMARK    1  A    between atoms: N_5  and  C_6 
REMARK    2  A    between atoms: C_6  and  C_7 
REMARK    3  A    between atoms: C_10  and  N_14 
ROOT
HETATM    1  C   UNL     3     -42.003 -50.256  12.217  1.00  0.00    -0.015 A 
HETATM    2  C   UNL     3     -43.084 -49.808  12.986  1.00  0.00     0.014 A 
HETATM    3  C   UNL     3     -43.898 -50.717  13.654  1.00  0.00     0.049 A 
HETATM    4  C   UNL     3     -43.623 -52.091  13.581  1.00  0.00     0.103 A 
HETATM    5  N   UNL     3     -42.563 -52.506  12.824  1.00  0.00    -0.352 N 
ATOM      6  HN  UNL     3     -42.356 -53.503  12.774  1.00  0.00     0.166 HD
HETATM    7  C   UNL     3     -41.772 -51.638  12.135  1.00  0.00     0.098 A 
ENDROOT
BRANCH   4   8
HETATM    8  N   UNL     3     -44.395 -53.057  14.308  1.00  0.00    -0.363 N 
HETATM    9  C   UNL     3     -44.144 -54.488  14.190  1.00  0.00     0.150 C 
HETATM   10  C   UNL     3     -45.458 -55.187  13.832  1.00  0.00     0.187 C 
HETATM   11  O   UNL     3     -46.463 -54.877  14.784  1.00  0.00    -0.388 OA
HETATM   12  C   UNL     3     -46.725 -53.483  14.772  1.00  0.00     0.187 C 
HETATM   13  C   UNL     3     -45.481 -52.696  15.209  1.00  0.00     0.150 C 
ENDBRANCH   4   8
BRANCH   1  14
HETATM   14  C   UNL     3     -41.104 -49.272  11.516  1.00  0.00     0.306 C 
BRANCH  14  15
HETATM   15  N   UNL     3     -40.389 -49.906  10.404  1.00  0.00     0.082 N 
HETATM   16  H   UNL     3     -40.690 -49.470   9.503  1.00  0.00     0.313 HD
HETATM   17  H   UNL     3     -39.352 -49.810  10.484  1.00  0.00     0.313 HD
ENDBRANCH  14  15
ENDBRANCH   1  14
TORSDOF 3
ENDMDL
MODEL 4
REMARK VINA RESULT:      -4.8      5.612      7.478
REMARK  3 active torsions:
REMARK  status: ('A' for Active; 'I' for Inactive)
REMARK    1  A    between atoms: N_5  and  C_6 
REMARK    2  A    between atoms: C_6  and  C_7 
REMARK    3  A    between atoms: C_10  and  N_14 
ROOT
HETATM    1  C   UNL     3     -40.956 -50.345  11.925  1.00  0.00    -0.015 A 
HETATM    2  C   UNL     3     -42.154 -49.630  12.044  1.00  0.00     0.014 A 
HETATM    3  C   UNL     3     -42.220 -48.297  11.651  1.00  0.00     0.049 A 
HETATM    4  C   UNL     3     -41.090 -47.668  11.108  1.00  0.00     0.103 A 
HETATM    5  N   UNL     3     -39.931 -48.385  11.002  1.00  0.00    -0.352 N 
ATOM      6  HN  UNL     3     -39.109 -47.933  10.602  1.00  0.00     0.166 HD
HETATM    7  C   UNL     3     -39.833 -49.681  11.410  1.00  0.00     0.098 A 
ENDROOT
BRANCH   4   8
HETATM    8  N   UNL     3     -41.132 -46.317  10.628  1.00  0.00    -0.363 N 
HETATM    9  C   UNL     3     -39.922 -45.525  10.452  1.00  0.00     0.150 C 
HETATM   10  C   UNL     3     -40.086 -44.204  11.208  1.00  0.00     0.187 C 
HETATM   11  O   UNL     3     -41.258 -43.528  10.780  1.00  0.00    -0.388 OA
HETATM   12  C   UNL     3     -42.402 -44.313  11.076  1.00  0.00     0.187 C 
HETATM   13  C   UNL     3     -42.371 -45.630  10.286  1.00  0.00     0.150 C 
ENDBRANCH   4   8
BRANCH   1  14
HETATM   14  C   UNL     3     -40.889 -51.796  12.323  1.00  0.00     0.306 C 
BRANCH  14  15
HETATM   15  N   UNL     3     -41.199 -52.672  11.189  1.00  0.00     0.082 N 
HETATM   16  H   UNL     3     -40.542 -52.467  10.402  1.00  0.00     0.313 HD
HETATM   17  H   UNL     3     -41.120 -53.685  11.428  1.00  0.00     0.313 HD
ENDBRANCH  14  15
ENDBRANCH   1  14
TORSDOF 3
ENDMDL
MODEL 5
REMARK VINA RESULT:      -4.6      5.185      7.010
REMARK  3 active torsions:
REMARK  status: ('A' for Active; 'I' for Inactive)
REMARK    1  A    between atoms: N_5  and  C_6 
REMARK    2  A    between atoms: C_6  and  C_7 
REMARK    3  A    between atoms: C_10  and  N_14 
ROOT
HETATM    1  C   UNL     3     -42.979 -46.431   9.749  1.00  0.00    -0.015 A 
HETATM    2  C   UNL     3     -41.807 -45.912  10.315  1.00  0.00     0.014 A 
HETATM    3  C   UNL     3     -40.972 -46.726  11.073  1.00  0.00     0.049 A 
HETATM    4  C   UNL     3     -41.287 -48.081  11.255  1.00  0.00     0.103 A 
HETATM    5  N   UNL     3     -42.436 -48.565  10.695  1.00  0.00    -0.352 N 
ATOM      6  HN  UNL     3     -42.665 -49.551  10.819  1.00  0.00     0.166 HD
HETATM    7  C   UNL     3     -43.286 -47.781   9.976  1.00  0.00     0.098 A 
ENDROOT
BRANCH   4   8
HETATM    8  N   UNL     3     -40.419 -48.970  11.973  1.00  0.00    -0.363 N 
HETATM    9  C   UNL     3     -38.974 -48.789  11.986  1.00  0.00     0.150 C 
HETATM   10  C   UNL     3     -38.312 -50.099  11.553  1.00  0.00     0.187 C 
HETATM   11  O   UNL     3     -38.744 -51.171  12.377  1.00  0.00    -0.388 OA
HETATM   12  C   UNL     3     -40.144 -51.353  12.236  1.00  0.00     0.187 C 
HETATM   13  C   UNL     3     -40.903 -50.114  12.734  1.00  0.00     0.150 C 
ENDBRANCH   4   8
BRANCH   1  14
HETATM   14  C   UNL     3     -43.870 -45.559   8.904  1.00  0.00     0.306 C 
BRANCH  14  15
HETATM   15  N   UNL     3     -45.253 -46.045   8.916  1.00  0.00     0.082 N 
HETATM   16  H   UNL     3     -45.821 -45.461   9.572  1.00  0.00     0.313 HD
HETATM   17  H   UNL     3     -45.700 -46.010   7.974  1.00  0.00     0.313 HD
ENDBRANCH  14  15
ENDBRANCH   1  14
TORSDOF 3
ENDMDL
MODEL 6
REMARK VINA RESULT:      -4.6      5.524      6.609
REMARK  3 active torsions:
REMARK  status: ('A' for Active; 'I' for Inactive)
REMARK    1  A    between atoms: N_5  and  C_6 
REMARK    2  A    between atoms: C_6  and  C_7 
REMARK    3  A    between atoms: C_10  and  N_14 
ROOT
HETATM    1  C   UNL     3     -44.245 -47.557   9.731  1.00  0.00    -0.015 A 
HETATM    2  C   UNL     3     -44.123 -47.780  11.108  1.00  0.00     0.014 A 
HETATM    3  C   UNL     3     -42.904 -48.173  11.652  1.00  0.00     0.049 A 
HETATM    4  C   UNL     3     -41.780 -48.322  10.825  1.00  0.00     0.103 A 
HETATM    5  N   UNL     3     -41.923 -48.099   9.483  1.00  0.00    -0.352 N 
ATOM      6  HN  UNL     3     -41.108 -48.200   8.880  1.00  0.00     0.166 HD
HETATM    7  C   UNL     3     -43.113 -47.746   8.923  1.00  0.00     0.098 A 
ENDROOT
BRANCH   4   8
HETATM    8  N   UNL     3     -40.490 -48.659  11.353  1.00  0.00    -0.363 N 
HETATM    9  C   UNL     3     -39.996 -50.029  11.358  1.00  0.00     0.150 C 
HETATM   10  C   UNL     3     -39.566 -50.391  12.781  1.00  0.00     0.187 C 
HETATM   11  O   UNL     3     -38.615 -49.456  13.266  1.00  0.00    -0.388 OA
HETATM   12  C   UNL     3     -39.197 -48.164  13.330  1.00  0.00     0.187 C 
HETATM   13  C   UNL     3     -39.581 -47.675  11.926  1.00  0.00     0.150 C 
ENDBRANCH   4   8
BRANCH   1  14
HETATM   14  C   UNL     3     -45.556 -47.104   9.143  1.00  0.00     0.306 C 
BRANCH  14  15
HETATM   15  N   UNL     3     -45.527 -45.674   8.823  1.00  0.00     0.082 N 
HETATM   16  H   UNL     3     -45.703 -45.543   7.801  1.00  0.00     0.313 HD
HETATM   17  H   UNL     3     -46.244 -45.129   9.351  1.00  0.00     0.313 HD
ENDBRANCH  14  15
ENDBRANCH   1  14
TORSDOF 3
ENDMDL
MODEL 7
REMARK VINA RESULT:      -4.6      1.926      2.332
REMARK  3 active torsions:
REMARK  status: ('A' for Active; 'I' for Inactive)
REMARK    1  A    between atoms: N_5  and  C_6 
REMARK    2  A    between atoms: C_6  and  C_7 
REMARK    3  A    between atoms: C_10  and  N_14 
ROOT
HETATM    1  C   UNL     3     -45.270 -52.030  12.751  1.00  0.00    -0.015 A 
HETATM    2  C   UNL     3     -44.388 -51.037  13.197  1.00  0.00     0.014 A 
HETATM    3  C   UNL     3     -43.021 -51.284  13.252  1.00  0.00     0.049 A 
HETATM    4  C   UNL     3     -42.513 -52.524  12.838  1.00  0.00     0.103 A 
HETATM    5  N   UNL     3     -43.392 -53.479  12.407  1.00  0.00    -0.352 N 
ATOM      6  HN  UNL     3     -43.026 -54.379  12.099  1.00  0.00     0.166 HD
HETATM    7  C   UNL     3     -44.737 -53.272  12.374  1.00  0.00     0.098 A 
ENDROOT
BRANCH   4   8
HETATM    8  N   UNL     3     -41.105 -52.797  12.815  1.00  0.00    -0.363 N 
HETATM    9  C   UNL     3     -40.580 -54.146  12.980  1.00  0.00     0.150 C 
HETATM   10  C   UNL     3     -39.546 -54.136  14.107  1.00  0.00     0.187 C 
HETATM   11  O   UNL     3     -38.534 -53.176  13.845  1.00  0.00    -0.388 OA
HETATM   12  C   UNL     3     -39.102 -51.876  13.799  1.00  0.00     0.187 C 
HETATM   13  C   UNL     3     -40.095 -51.763  12.633  1.00  0.00     0.150 C 
ENDBRANCH   4   8
BRANCH   1  14
HETATM   14  C   UNL     3     -46.748 -51.756  12.663  1.00  0.00     0.306 C 
BRANCH  14  15
HETATM   15  N   UNL     3     -47.238 -51.929  11.292  1.00  0.00     0.082 N 
HETATM   16  H   UNL     3     -47.299 -52.949  11.071  1.00  0.00     0.313 HD
HETATM   17  H   UNL     3     -48.181 -51.504  11.145  1.00  0.00     0.313 HD
ENDBRANCH  14  15
ENDBRANCH   1  14
TORSDOF 3
ENDMDL
MODEL 8
REMARK VINA RESULT:      -4.5      3.065      5.539
REMARK  3 active torsions:
REMARK  status: ('A' for Active; 'I' for Inactive)
REMARK    1  A    between atoms: N_5  and  C_6 
REMARK    2  A    between atoms: C_6  and  C_7 
REMARK    3  A    between atoms: C_10  and  N_14 
ROOT
HETATM    1  C   UNL     3     -41.598 -49.737  11.821  1.00  0.00    -0.015 A 
HETATM    2  C   UNL     3     -40.755 -50.849  11.699  1.00  0.00     0.014 A 
HETATM    3  C   UNL     3     -41.166 -52.097  12.153  1.00  0.00     0.049 A 
HETATM    4  C   UNL     3     -42.442 -52.256  12.715  1.00  0.00     0.103 A 
HETATM    5  N   UNL     3     -43.248 -51.157  12.824  1.00  0.00    -0.352 N 
ATOM      6  HN  UNL     3     -44.179 -51.270  13.226  1.00  0.00     0.166 HD
HETATM    7  C   UNL     3     -42.856 -49.919  12.417  1.00  0.00     0.098 A 
ENDROOT
BRANCH   4   8
HETATM    8  N   UNL     3     -42.932 -53.538  13.133  1.00  0.00    -0.363 N 
HETATM    9  C   UNL     3     -44.222 -54.050  12.691  1.00  0.00     0.150 C 
HETATM   10  C   UNL     3     -45.038 -54.451  13.922  1.00  0.00     0.187 C 
HETATM   11  O   UNL     3     -44.316 -55.379  14.716  1.00  0.00    -0.388 OA
HETATM   12  C   UNL     3     -43.123 -54.779  15.194  1.00  0.00     0.187 C 
HETATM   13  C   UNL     3     -42.193 -54.421  14.025  1.00  0.00     0.150 C 
ENDBRANCH   4   8
BRANCH   1  14
HETATM   14  C   UNL     3     -41.167 -48.390  11.305  1.00  0.00     0.306 C 
BRANCH  14  15
HETATM   15  N   UNL     3     -41.613 -48.184   9.924  1.00  0.00     0.082 N 
HETATM   16  H   UNL     3     -42.462 -48.767   9.743  1.00  0.00     0.313 HD
HETATM   17  H   UNL     3     -41.850 -47.187   9.722  1.00  0.00     0.313 HD
ENDBRANCH  14  15
ENDBRANCH   1  14
TORSDOF 3
ENDMDL
MODEL 9
REMARK VINA RESULT:      -4.5      2.437      3.085
REMARK  3 active torsions:
REMARK  status: ('A' for Active; 'I' for Inactive)
REMARK    1  A    between atoms: N_5  and  C_6 
REMARK    2  A    between atoms: C_6  and  C_7 
REMARK    3  A    between atoms: C_10  and  N_14 
ROOT
HETATM    1  C   UNL     3     -44.548 -54.039  13.444  1.00  0.00    -0.015 A 
HETATM    2  C   UNL     3     -43.184 -54.080  13.759  1.00  0.00     0.014 A 
HETATM    3  C   UNL     3     -42.368 -52.985  13.494  1.00  0.00     0.049 A 
HETATM    4  C   UNL     3     -42.914 -51.821  12.931  1.00  0.00     0.103 A 
HETATM    5  N   UNL     3     -44.247 -51.805  12.631  1.00  0.00    -0.352 N 
ATOM      6  HN  UNL     3     -44.649 -50.959  12.228  1.00  0.00     0.166 HD
HETATM    7  C   UNL     3     -45.060 -52.875  12.851  1.00  0.00     0.098 A 
ENDROOT
BRANCH   4   8
HETATM    8  N   UNL     3     -42.122 -50.646  12.704  1.00  0.00    -0.363 N 
HETATM    9  C   UNL     3     -42.718 -49.318  12.643  1.00  0.00     0.150 C 
HETATM   10  C   UNL     3     -42.285 -48.646  11.338  1.00  0.00     0.187 C 
HETATM   11  O   UNL     3     -40.870 -48.624  11.236  1.00  0.00    -0.388 OA
HETATM   12  C   UNL     3     -40.368 -49.951  11.199  1.00  0.00     0.187 C 
HETATM   13  C   UNL     3     -40.679 -50.682  12.513  1.00  0.00     0.150 C 
ENDBRANCH   4   8
BRANCH   1  14
HETATM   14  C   UNL     3     -45.439 -55.213  13.756  1.00  0.00     0.306 C 
BRANCH  14  15
HETATM   15  N   UNL     3     -46.675 -54.779  14.415  1.00  0.00     0.082 N 
HETATM   16  H   UNL     3     -46.457 -54.015  15.094  1.00  0.00     0.313 HD
HETATM   17  H   UNL     3     -47.388 -54.424  13.740  1.00  0.00     0.313 HD
ENDBRANCH  14  15
ENDBRANCH   1  14
TORSDOF 3
ENDMDL
