MODEL 1
REMARK VINA RESULT:      -5.4      0.000      0.000
REMARK  3 active torsions:
REMARK  status: ('A' for Active; 'I' for Inactive)
REMARK       I    between atoms: C_2  and  N_3 
REMARK       I    between atoms: C_2  and  N_10 
REMARK    1  A    between atoms: N_3  and  C_4 
REMARK    2  A    between atoms: C_4  and  C_5 
REMARK    3  A    between atoms: N_10  and  C_11 
ROOT
HETATM    1  O   UNL     1     -45.024 -54.648  12.660  1.00  0.00    -0.247 OA
HETATM    2  C   UNL     1     -44.314 -53.650  12.544  1.00  0.00     0.322 C 
HETATM    3  N   UNL     1     -44.814 -52.394  12.425  1.00  0.00    -0.340 N 
HETATM    4  N   UNL     1     -42.964 -53.789  12.603  1.00  0.00    -0.289 N 
HETATM    5  H   UNL     1     -44.161 -51.628  12.272  1.00  0.00     0.164 HD
HETATM    6  H   UNL     1     -42.631 -54.712  12.830  1.00  0.00     0.172 HD
ENDROOT
BRANCH   3   7
HETATM    7  C   UNL     1     -46.220 -52.070  12.565  1.00  0.00     0.156 C 
BRANCH   7   8
HETATM    8  C   UNL     1     -46.563 -51.545  13.957  1.00  0.00     0.139 C 
HETATM    9  C   UNL     1     -45.386 -50.985  14.739  1.00  0.00     0.035 C 
HETATM   10  C   UNL     1     -45.657 -51.384  16.174  1.00  0.00     0.029 C 
HETATM   11  C   UNL     1     -46.939 -52.184  16.128  1.00  0.00     0.168 C 
HETATM   12  O   UNL     1     -47.115 -52.599  14.770  1.00  0.00    -0.384 OA
ENDBRANCH   7   8
ENDBRANCH   3   7
BRANCH   4  13
HETATM   13  C   UNL     1     -42.050 -52.783  12.498  1.00  0.00     0.152 A 
HETATM   14  N   UNL     1     -41.456 -52.333  11.418  1.00  0.00    -0.346 N 
HETATM   15  C   UNL     1     -40.626 -51.285  11.770  1.00  0.00     0.097 A 
ATOM     16  HN  UNL     1     -41.586 -52.696  10.474  1.00  0.00     0.167 HD
HETATM   17  C   UNL     1     -40.651 -50.930  13.103  1.00  0.00     0.070 A 
HETATM   18  S   UNL     1     -41.666 -52.012  13.967  1.00  0.00    -0.064 SA
ENDBRANCH   4  13
TORSDOF 3
ENDMDL
MODEL 2
REMARK VINA RESULT:      -5.3      2.472      3.184
REMARK  3 active torsions:
REMARK  status: ('A' for Active; 'I' for Inactive)
REMARK       I    between atoms: C_2  and  N_3 
REMARK       I    between atoms: C_2  and  N_10 
REMARK    1  A    between atoms: N_3  and  C_4 
REMARK    2  A    between atoms: C_4  and  C_5 
REMARK    3  A    between atoms: N_10  and  C_11 
ROOT
HETATM    1  O   UNL     1     -40.491 -53.144  12.188  1.00  0.00    -0.247 OA
HETATM    2  C   UNL     1     -41.088 -52.093  11.960  1.00  0.00     0.322 C 
HETATM    3  N   UNL     1     -42.439 -51.980  12.023  1.00  0.00    -0.340 N 
HETATM    4  N   UNL     1     -40.372 -50.969  11.697  1.00  0.00    -0.289 N 
HETATM    5  H   UNL     1     -42.861 -51.091  11.762  1.00  0.00     0.164 HD
HETATM    6  H   UNL     1     -39.373 -51.057  11.794  1.00  0.00     0.172 HD
ENDROOT
BRANCH   3   7
HETATM    7  C   UNL     1     -43.314 -53.032  12.502  1.00  0.00     0.156 C 
BRANCH   7   8
HETATM    8  C   UNL     1     -44.750 -52.553  12.702  1.00  0.00     0.139 C 
HETATM    9  C   UNL     1     -44.886 -51.212  13.405  1.00  0.00     0.035 C 
HETATM   10  C   UNL     1     -46.124 -51.355  14.264  1.00  0.00     0.029 C 
HETATM   11  C   UNL     1     -46.598 -52.774  14.045  1.00  0.00     0.168 C 
HETATM   12  O   UNL     1     -45.488 -53.497  13.503  1.00  0.00    -0.384 OA
ENDBRANCH   7   8
ENDBRANCH   3   7
BRANCH   4  13
HETATM   13  C   UNL     1     -40.887 -49.736  11.433  1.00  0.00     0.152 A 
HETATM   14  N   UNL     1     -41.175 -49.207  10.267  1.00  0.00    -0.346 N 
HETATM   15  C   UNL     1     -41.702 -47.945  10.469  1.00  0.00     0.097 A 
ATOM     16  HN  UNL     1     -41.033 -49.653   9.361  1.00  0.00     0.167 HD
HETATM   17  C   UNL     1     -41.853 -47.567  11.787  1.00  0.00     0.070 A 
HETATM   18  S   UNL     1     -41.212 -48.789  12.810  1.00  0.00    -0.064 SA
ENDBRANCH   4  13
TORSDOF 3
ENDMDL
MODEL 3
REMARK VINA RESULT:      -5.2      3.557      5.046
REMARK  3 active torsions:
REMARK  status: ('A' for Active; 'I' for Inactive)
REMARK       I    between atoms: C_2  and  N_3 
REMARK       I    between atoms: C_2  and  N_10 
REMARK    1  A    between atoms: N_3  and  C_4 
REMARK    2  A    between atoms: C_4  and  C_5 
REMARK    3  A    between atoms: N_10  and  C_11 
ROOT
HETATM    1  O   UNL     1     -38.998 -50.471  11.926  1.00  0.00    -0.247 OA
HETATM    2  C   UNL     1     -40.104 -50.153  11.493  1.00  0.00     0.322 C 
HETATM    3  N   UNL     1     -41.136 -51.028  11.380  1.00  0.00    -0.340 N 
HETATM    4  N   UNL     1     -40.339 -48.855  11.169  1.00  0.00    -0.289 N 
HETATM    5  H   UNL     1     -42.001 -50.701  10.955  1.00  0.00     0.164 HD
HETATM    6  H   UNL     1     -39.599 -48.209  11.395  1.00  0.00     0.172 HD
ENDROOT
BRANCH   3   7
HETATM    7  C   UNL     1     -41.100 -52.385  11.887  1.00  0.00     0.156 C 
BRANCH   7   8
HETATM    8  C   UNL     1     -42.230 -52.672  12.874  1.00  0.00     0.139 C 
HETATM    9  C   UNL     1     -42.003 -53.875  13.775  1.00  0.00     0.035 C 
HETATM   10  C   UNL     1     -43.373 -54.497  13.932  1.00  0.00     0.029 C 
HETATM   11  C   UNL     1     -44.294 -53.653  13.080  1.00  0.00     0.168 C 
HETATM   12  O   UNL     1     -43.460 -52.930  12.168  1.00  0.00    -0.384 OA
ENDBRANCH   7   8
ENDBRANCH   3   7
BRANCH   4  13
HETATM   13  C   UNL     1     -41.508 -48.349  10.685  1.00  0.00     0.152 A 
HETATM   14  N   UNL     1     -41.894 -48.244   9.435  1.00  0.00    -0.346 N 
HETATM   15  C   UNL     1     -43.164 -47.699   9.405  1.00  0.00     0.097 A 
ATOM     16  HN  UNL     1     -41.346 -48.519   8.620  1.00  0.00     0.167 HD
HETATM   17  C   UNL     1     -43.735 -47.454  10.637  1.00  0.00     0.070 A 
HETATM   18  S   UNL     1     -42.603 -47.816  11.877  1.00  0.00    -0.064 SA
ENDBRANCH   4  13
TORSDOF 3
ENDMDL
MODEL 4
REMARK VINA RESULT:      -4.9      1.826      2.071
REMARK  3 active torsions:
REMARK  status: ('A' for Active; 'I' for Inactive)
REMARK       I    between atoms: C_2  and  N_3 
REMARK       I    between atoms: C_2  and  N_10 
REMARK    1  A    between atoms: N_3  and  C_4 
REMARK    2  A    between atoms: C_4  and  C_5 
REMARK    3  A    between atoms: N_10  and  C_11 
ROOT
HETATM    1  O   UNL     1     -43.435 -55.776  15.549  1.00  0.00    -0.247 OA
HETATM    2  C   UNL     1     -43.291 -54.941  14.658  1.00  0.00     0.322 C 
HETATM    3  N   UNL     1     -44.302 -54.549  13.840  1.00  0.00    -0.340 N 
HETATM    4  N   UNL     1     -42.089 -54.324  14.517  1.00  0.00    -0.289 N 
HETATM    5  H   UNL     1     -44.087 -53.897  13.088  1.00  0.00     0.164 HD
HETATM    6  H   UNL     1     -41.405 -54.537  15.226  1.00  0.00     0.172 HD
ENDROOT
BRANCH   3   7
HETATM    7  C   UNL     1     -45.682 -54.955  14.013  1.00  0.00     0.156 C 
BRANCH   7   8
HETATM    8  C   UNL     1     -46.577 -53.806  14.470  1.00  0.00     0.139 C 
HETATM    9  C   UNL     1     -46.453 -52.532  13.649  1.00  0.00     0.035 C 
HETATM   10  C   UNL     1     -46.604 -51.413  14.656  1.00  0.00     0.029 C 
HETATM   11  C   UNL     1     -46.756 -52.100  15.994  1.00  0.00     0.168 C 
HETATM   12  O   UNL     1     -46.267 -53.435  15.827  1.00  0.00    -0.384 OA
ENDBRANCH   7   8
ENDBRANCH   3   7
BRANCH   4  13
HETATM   13  C   UNL     1     -41.779 -53.378  13.587  1.00  0.00     0.152 A 
HETATM   14  N   UNL     1     -41.359 -53.554  12.356  1.00  0.00    -0.346 N 
HETATM   15  C   UNL     1     -41.195 -52.317  11.761  1.00  0.00     0.097 A 
ATOM     16  HN  UNL     1     -41.181 -54.455  11.912  1.00  0.00     0.167 HD
HETATM   17  C   UNL     1     -41.548 -51.232  12.536  1.00  0.00     0.070 A 
HETATM   18  S   UNL     1     -41.998 -51.770  14.104  1.00  0.00    -0.064 SA
ENDBRANCH   4  13
TORSDOF 3
ENDMDL
MODEL 5
REMARK VINA RESULT:      -4.9      1.839      2.343
REMARK  3 active torsions:
REMARK  status: ('A' for Active; 'I' for Inactive)
REMARK       I    between atoms: C_2  and  N_3 
REMARK       I    between atoms: C_2  and  N_10 
REMARK    1  A    between atoms: N_3  and  C_4 
REMARK    2  A    between atoms: C_4  and  C_5 
REMARK    3  A    between atoms: N_10  and  C_11 
ROOT
HETATM    1  O   UNL     1     -41.528 -54.114  13.131  1.00  0.00    -0.247 OA
HETATM    2  C   UNL     1     -41.804 -53.015  12.652  1.00  0.00     0.322 C 
HETATM    3  N   UNL     1     -43.032 -52.708  12.162  1.00  0.00    -0.340 N 
HETATM    4  N   UNL     1     -40.867 -52.032  12.667  1.00  0.00    -0.289 N 
HETATM    5  H   UNL     1     -43.164 -51.797  11.727  1.00  0.00     0.164 HD
HETATM    6  H   UNL     1     -40.016 -52.249  13.162  1.00  0.00     0.172 HD
ENDROOT
BRANCH   3   7
HETATM    7  C   UNL     1     -44.186 -53.577  12.278  1.00  0.00     0.156 C 
BRANCH   7   8
HETATM    8  C   UNL     1     -45.424 -52.843  12.787  1.00  0.00     0.139 C 
HETATM    9  C   UNL     1     -45.158 -51.459  13.358  1.00  0.00     0.035 C 
HETATM   10  C   UNL     1     -46.126 -51.331  14.514  1.00  0.00     0.029 C 
HETATM   11  C   UNL     1     -46.854 -52.655  14.572  1.00  0.00     0.168 C 
HETATM   12  O   UNL     1     -46.056 -53.593  13.842  1.00  0.00    -0.384 OA
ENDBRANCH   7   8
ENDBRANCH   3   7
BRANCH   4  13
HETATM   13  C   UNL     1     -41.024 -50.768  12.183  1.00  0.00     0.152 A 
HETATM   14  N   UNL     1     -40.777 -50.324  10.973  1.00  0.00    -0.346 N 
HETATM   15  C   UNL     1     -41.108 -48.983  10.916  1.00  0.00     0.097 A 
ATOM     16  HN  UNL     1     -40.404 -50.877  10.203  1.00  0.00     0.167 HD
HETATM   17  C   UNL     1     -41.649 -48.453  12.069  1.00  0.00     0.070 A 
HETATM   18  S   UNL     1     -41.645 -49.646  13.304  1.00  0.00    -0.064 SA
ENDBRANCH   4  13
TORSDOF 3
ENDMDL
MODEL 6
REMARK VINA RESULT:      -4.5      2.036      2.252
REMARK  3 active torsions:
REMARK  status: ('A' for Active; 'I' for Inactive)
REMARK       I    between atoms: C_2  and  N_3 
REMARK       I    between atoms: C_2  and  N_10 
REMARK    1  A    between atoms: N_3  and  C_4 
REMARK    2  A    between atoms: C_4  and  C_5 
REMARK    3  A    between atoms: N_10  and  C_11 
ROOT
HETATM    1  O   UNL     1     -45.071 -53.243  12.103  1.00  0.00    -0.247 OA
HETATM    2  C   UNL     1     -44.014 -53.144  12.723  1.00  0.00     0.322 C 
HETATM    3  N   UNL     1     -43.752 -52.126  13.583  1.00  0.00    -0.340 N 
HETATM    4  N   UNL     1     -43.081 -54.124  12.604  1.00  0.00    -0.289 N 
HETATM    5  H   UNL     1     -42.830 -52.083  14.012  1.00  0.00     0.164 HD
HETATM    6  H   UNL     1     -43.364 -54.930  12.068  1.00  0.00     0.172 HD
ENDROOT
BRANCH   3   7
HETATM    7  C   UNL     1     -44.731 -51.132  13.977  1.00  0.00     0.156 C 
BRANCH   7   8
HETATM    8  C   UNL     1     -45.464 -51.509  15.262  1.00  0.00     0.139 C 
HETATM    9  C   UNL     1     -46.969 -51.669  15.117  1.00  0.00     0.035 C 
HETATM   10  C   UNL     1     -47.536 -51.134  16.413  1.00  0.00     0.029 C 
HETATM   11  C   UNL     1     -46.339 -50.655  17.203  1.00  0.00     0.168 C 
HETATM   12  O   UNL     1     -45.268 -50.495  16.268  1.00  0.00    -0.384 OA
ENDBRANCH   7   8
ENDBRANCH   3   7
BRANCH   4  13
HETATM   13  C   UNL     1     -41.871 -54.159  13.229  1.00  0.00     0.152 A 
HETATM   14  N   UNL     1     -40.688 -53.897  12.725  1.00  0.00    -0.346 N 
HETATM   15  C   UNL     1     -39.740 -54.029  13.723  1.00  0.00     0.097 A 
ATOM     16  HN  UNL     1     -40.498 -53.640  11.757  1.00  0.00     0.167 HD
HETATM   17  C   UNL     1     -40.234 -54.335  14.975  1.00  0.00     0.070 A 
HETATM   18  S   UNL     1     -41.932 -54.572  14.880  1.00  0.00    -0.064 SA
ENDBRANCH   4  13
TORSDOF 3
ENDMDL
MODEL 7
REMARK VINA RESULT:      -4.5      4.160      5.959
REMARK  3 active torsions:
REMARK  status: ('A' for Active; 'I' for Inactive)
REMARK       I    between atoms: C_2  and  N_3 
REMARK       I    between atoms: C_2  and  N_10 
REMARK    1  A    between atoms: N_3  and  C_4 
REMARK    2  A    between atoms: C_4  and  C_5 
REMARK    3  A    between atoms: N_10  and  C_11 
ROOT
HETATM    1  O   UNL     1     -38.822 -49.809  11.375  1.00  0.00    -0.247 OA
HETATM    2  C   UNL     1     -39.905 -50.187  11.820  1.00  0.00     0.322 C 
HETATM    3  N   UNL     1     -40.881 -49.331  12.217  1.00  0.00    -0.340 N 
HETATM    4  N   UNL     1     -40.176 -51.517  11.861  1.00  0.00    -0.289 N 
HETATM    5  H   UNL     1     -41.726 -49.722  12.631  1.00  0.00     0.164 HD
HETATM    6  H   UNL     1     -39.488 -52.115  11.432  1.00  0.00     0.172 HD
ENDROOT
BRANCH   3   7
HETATM    7  C   UNL     1     -40.821 -47.895  12.028  1.00  0.00     0.156 C 
BRANCH   7   8
HETATM    8  C   UNL     1     -41.374 -47.459  10.674  1.00  0.00     0.139 C 
HETATM    9  C   UNL     1     -41.781 -45.997  10.590  1.00  0.00     0.035 C 
HETATM   10  C   UNL     1     -43.007 -45.993   9.703  1.00  0.00     0.029 C 
HETATM   11  C   UNL     1     -43.262 -47.446   9.370  1.00  0.00     0.168 C 
HETATM   12  O   UNL     1     -42.553 -48.219  10.344  1.00  0.00    -0.384 OA
ENDBRANCH   7   8
ENDBRANCH   3   7
BRANCH   4  13
HETATM   13  C   UNL     1     -41.327 -52.086  12.319  1.00  0.00     0.152 A 
HETATM   14  N   UNL     1     -42.386 -52.444  11.632  1.00  0.00    -0.346 N 
HETATM   15  C   UNL     1     -43.307 -53.006  12.496  1.00  0.00     0.097 A 
ATOM     16  HN  UNL     1     -42.510 -52.327  10.627  1.00  0.00     0.167 HD
HETATM   17  C   UNL     1     -42.903 -53.111  13.811  1.00  0.00     0.070 A 
HETATM   18  S   UNL     1     -41.358 -52.383  13.996  1.00  0.00    -0.064 SA
ENDBRANCH   4  13
TORSDOF 3
ENDMDL
MODEL 8
REMARK VINA RESULT:      -4.4      2.762      5.529
REMARK  3 active torsions:
REMARK  status: ('A' for Active; 'I' for Inactive)
REMARK       I    between atoms: C_2  and  N_3 
REMARK       I    between atoms: C_2  and  N_10 
REMARK    1  A    between atoms: N_3  and  C_4 
REMARK    2  A    between atoms: C_4  and  C_5 
REMARK    3  A    between atoms: N_10  and  C_11 
ROOT
HETATM    1  O   UNL     1     -44.633 -54.456  12.223  1.00  0.00    -0.247 OA
HETATM    2  C   UNL     1     -44.781 -53.733  13.207  1.00  0.00     0.322 C 
HETATM    3  N   UNL     1     -43.779 -52.979  13.729  1.00  0.00    -0.340 N 
HETATM    4  N   UNL     1     -46.013 -53.622  13.767  1.00  0.00    -0.289 N 
HETATM    5  H   UNL     1     -43.966 -52.454  14.581  1.00  0.00     0.164 HD
HETATM    6  H   UNL     1     -46.759 -54.084  13.273  1.00  0.00     0.172 HD
ENDROOT
BRANCH   3   7
HETATM    7  C   UNL     1     -42.478 -52.828  13.110  1.00  0.00     0.156 C 
BRANCH   7   8
HETATM    8  C   UNL     1     -41.523 -53.964  13.469  1.00  0.00     0.139 C 
HETATM    9  C   UNL     1     -41.501 -54.341  14.941  1.00  0.00     0.035 C 
HETATM   10  C   UNL     1     -40.057 -54.694  15.223  1.00  0.00     0.029 C 
HETATM   11  C   UNL     1     -39.327 -54.454  13.921  1.00  0.00     0.168 C 
HETATM   12  O   UNL     1     -40.168 -53.608  13.130  1.00  0.00    -0.384 OA
ENDBRANCH   7   8
ENDBRANCH   3   7
BRANCH   4  13
HETATM   13  C   UNL     1     -46.334 -52.859  14.850  1.00  0.00     0.152 A 
HETATM   14  N   UNL     1     -46.888 -51.670  14.872  1.00  0.00    -0.346 N 
HETATM   15  C   UNL     1     -47.058 -51.283  16.188  1.00  0.00     0.097 A 
ATOM     16  HN  UNL     1     -47.149 -51.121  14.054  1.00  0.00     0.167 HD
HETATM   17  C   UNL     1     -46.680 -52.212  17.135  1.00  0.00     0.070 A 
HETATM   18  S   UNL     1     -45.985 -53.575  16.356  1.00  0.00    -0.064 SA
ENDBRANCH   4  13
TORSDOF 3
ENDMDL
MODEL 9
REMARK VINA RESULT:      -4.3      5.133      6.449
REMARK  3 active torsions:
REMARK  status: ('A' for Active; 'I' for Inactive)
REMARK       I    between atoms: C_2  and  N_3 
REMARK       I    between atoms: C_2  and  N_10 
REMARK    1  A    between atoms: N_3  and  C_4 
REMARK    2  A    between atoms: C_4  and  C_5 
REMARK    3  A    between atoms: N_10  and  C_11 
ROOT
HETATM    1  O   UNL     1     -39.398 -47.081  12.928  1.00  0.00    -0.247 OA
HETATM    2  C   UNL     1     -40.087 -48.018  12.530  1.00  0.00     0.322 C 
HETATM    3  N   UNL     1     -40.999 -47.895  11.531  1.00  0.00    -0.340 N 
HETATM    4  N   UNL     1     -39.893 -49.254  13.059  1.00  0.00    -0.289 N 
HETATM    5  H   UNL     1     -41.573 -48.704  11.301  1.00  0.00     0.164 HD
HETATM    6  H   UNL     1     -39.117 -49.338  13.695  1.00  0.00     0.172 HD
ENDROOT
BRANCH   3   7
HETATM    7  C   UNL     1     -41.160 -46.699  10.730  1.00  0.00     0.156 C 
BRANCH   7   8
HETATM    8  C   UNL     1     -42.626 -46.352  10.483  1.00  0.00     0.139 C 
HETATM    9  C   UNL     1     -43.590 -47.521  10.604  1.00  0.00     0.035 C 
HETATM   10  C   UNL     1     -44.633 -47.268   9.538  1.00  0.00     0.029 C 
HETATM   11  C   UNL     1     -44.187 -46.004   8.837  1.00  0.00     0.168 C 
HETATM   12  O   UNL     1     -42.801 -45.830   9.151  1.00  0.00    -0.384 OA
ENDBRANCH   7   8
ENDBRANCH   3   7
BRANCH   4  13
HETATM   13  C   UNL     1     -40.570 -50.387  12.718  1.00  0.00     0.152 A 
HETATM   14  N   UNL     1     -40.271 -51.266  11.792  1.00  0.00    -0.346 N 
HETATM   15  C   UNL     1     -41.219 -52.272  11.810  1.00  0.00     0.097 A 
ATOM     16  HN  UNL     1     -39.471 -51.216  11.162  1.00  0.00     0.167 HD
HETATM   17  C   UNL     1     -42.187 -52.160  12.787  1.00  0.00     0.070 A 
HETATM   18  S   UNL     1     -41.967 -50.689  13.645  1.00  0.00    -0.064 SA
ENDBRANCH   4  13
TORSDOF 3
ENDMDL
