MODEL 1
REMARK VINA RESULT:      -6.0      0.000      0.000
REMARK  6 active torsions:
REMARK  status: ('A' for Active; 'I' for Inactive)
REMARK    1  A    between atoms: N_2  and  C_4 
REMARK    2  A    between atoms: C_4  and  C_5 
REMARK    3  A    between atoms: C_5  and  C_8 
REMARK    4  A    between atoms: C_8  and  N_9 
REMARK       I    between atoms: N_9  and  C_10 
REMARK    5  A    between atoms: C_10  and  C_12 
REMARK    6  A    between atoms: C_18  and  N_19 
ROOT
HETATM    1  C   UNL     1     -42.690 -49.091  12.479  1.00  0.00     0.070 A 
HETATM    2  C   UNL     1     -43.290 -48.012  11.805  1.00  0.00     0.022 A 
HETATM    3  C   UNL     1     -42.777 -47.576  10.603  1.00  0.00     0.018 A 
HETATM    4  C   UNL     1     -41.677 -48.239  10.116  1.00  0.00     0.089 A 
HETATM    5  N   UNL     1     -41.085 -49.303  10.732  1.00  0.00    -0.356 N 
ATOM      6  HN  UNL     1     -40.280 -49.765  10.309  1.00  0.00     0.166 HD
HETATM    7  C   UNL     1     -41.585 -49.736  11.919  1.00  0.00     0.098 A 
ENDROOT
BRANCH   1   8
HETATM    8  C   UNL     1     -43.272 -49.379  13.792  1.00  0.00     0.254 C 
HETATM    9  N   UNL     1     -44.111 -50.465  13.945  1.00  0.00    -0.356 N 
HETATM   10  H   UNL     1     -44.227 -51.037  13.112  1.00  0.00     0.162 HD
HETATM   11  O   UNL     1     -42.930 -48.589  14.668  1.00  0.00    -0.268 OA
BRANCH   9  12
HETATM   12  C   UNL     1     -44.618 -51.042  15.211  1.00  0.00     0.133 C 
BRANCH  12  13
HETATM   13  C   UNL     1     -46.013 -51.739  15.194  1.00  0.00    -0.005 C 
HETATM   14  C   UNL     1     -46.618 -51.570  13.776  1.00  0.00     0.018 C 
HETATM   15  C   UNL     1     -46.815 -51.162  16.392  1.00  0.00     0.018 C 
BRANCH  13  16
HETATM   16  C   UNL     1     -45.875 -53.289  15.419  1.00  0.00     0.281 C 
BRANCH  16  17
HETATM   17  N   UNL     1     -44.883 -54.004  14.571  1.00  0.00     0.080 N 
HETATM   18  C   UNL     1     -43.782 -54.513  15.384  1.00  0.00     0.309 C 
HETATM   19  C   UNL     1     -45.426 -55.094  13.760  1.00  0.00     0.309 C 
ENDBRANCH  16  17
ENDBRANCH  13  16
ENDBRANCH  12  13
ENDBRANCH   9  12
ENDBRANCH   1   8
BRANCH   7  20
HETATM   20  N   UNL     1     -41.031 -50.886  12.484  1.00  0.00    -0.265 NA
HETATM   21  C   UNL     1     -41.485 -52.151  11.870  1.00  0.00     0.123 C 
HETATM   22  C   UNL     1     -41.167 -53.280  12.862  1.00  0.00     0.182 C 
HETATM   23  O   UNL     1     -39.758 -53.344  13.160  1.00  0.00    -0.389 OA
HETATM   24  C   UNL     1     -39.283 -52.086  13.677  1.00  0.00     0.182 C 
HETATM   25  C   UNL     1     -39.566 -50.926  12.696  1.00  0.00     0.123 C 
ENDBRANCH   7  20
TORSDOF 6
ENDMDL
MODEL 2
REMARK VINA RESULT:      -5.7      1.756      5.637
REMARK  6 active torsions:
REMARK  status: ('A' for Active; 'I' for Inactive)
REMARK    1  A    between atoms: N_2  and  C_4 
REMARK    2  A    between atoms: C_4  and  C_5 
REMARK    3  A    between atoms: C_5  and  C_8 
REMARK    4  A    between atoms: C_8  and  N_9 
REMARK       I    between atoms: N_9  and  C_10 
REMARK    5  A    between atoms: C_10  and  C_12 
REMARK    6  A    between atoms: C_18  and  N_19 
ROOT
HETATM    1  C   UNL     1     -44.154 -51.216  13.372  1.00  0.00     0.070 A 
HETATM    2  C   UNL     1     -45.558 -51.302  13.377  1.00  0.00     0.022 A 
HETATM    3  C   UNL     1     -46.178 -52.520  13.197  1.00  0.00     0.018 A 
HETATM    4  C   UNL     1     -45.365 -53.613  13.019  1.00  0.00     0.089 A 
HETATM    5  N   UNL     1     -44.002 -53.569  13.031  1.00  0.00    -0.356 N 
ATOM      6  HN  UNL     1     -43.454 -54.421  12.912  1.00  0.00     0.166 HD
HETATM    7  C   UNL     1     -43.386 -52.370  13.206  1.00  0.00     0.098 A 
ENDROOT
BRANCH   1   8
HETATM    8  C   UNL     1     -43.635 -49.850  13.466  1.00  0.00     0.254 C 
HETATM    9  N   UNL     1     -43.380 -49.135  12.313  1.00  0.00    -0.356 N 
HETATM   10  H   UNL     1     -43.631 -49.610  11.450  1.00  0.00     0.162 HD
HETATM   11  O   UNL     1     -43.478 -49.460  14.620  1.00  0.00    -0.268 OA
BRANCH   9  12
HETATM   12  C   UNL     1     -43.065 -47.692  12.199  1.00  0.00     0.133 C 
BRANCH  12  13
HETATM   13  C   UNL     1     -42.107 -47.238  11.054  1.00  0.00    -0.005 C 
HETATM   14  C   UNL     1     -41.335 -48.486  10.550  1.00  0.00     0.018 C 
HETATM   15  C   UNL     1     -41.274 -46.053  11.612  1.00  0.00     0.018 C 
BRANCH  13  16
HETATM   16  C   UNL     1     -42.916 -46.706   9.815  1.00  0.00     0.281 C 
BRANCH  16  17
HETATM   17  N   UNL     1     -43.776 -47.691   9.104  1.00  0.00     0.080 N 
HETATM   18  C   UNL     1     -45.189 -47.375   9.297  1.00  0.00     0.309 C 
HETATM   19  C   UNL     1     -43.508 -47.836   7.672  1.00  0.00     0.309 C 
ENDBRANCH  16  17
ENDBRANCH  13  16
ENDBRANCH  12  13
ENDBRANCH   9  12
ENDBRANCH   1   8
BRANCH   7  20
HETATM   20  N   UNL     1     -41.993 -52.358  13.317  1.00  0.00    -0.265 NA
HETATM   21  C   UNL     1     -41.418 -53.563  13.947  1.00  0.00     0.123 C 
HETATM   22  C   UNL     1     -39.995 -53.206  14.402  1.00  0.00     0.182 C 
HETATM   23  O   UNL     1     -39.176 -52.779  13.295  1.00  0.00    -0.389 OA
HETATM   24  C   UNL     1     -39.771 -51.657  12.615  1.00  0.00     0.182 C 
HETATM   25  C   UNL     1     -41.199 -51.985  12.123  1.00  0.00     0.123 C 
ENDBRANCH   7  20
TORSDOF 6
ENDMDL
MODEL 3
REMARK VINA RESULT:      -5.6      1.696      3.966
REMARK  6 active torsions:
REMARK  status: ('A' for Active; 'I' for Inactive)
REMARK    1  A    between atoms: N_2  and  C_4 
REMARK    2  A    between atoms: C_4  and  C_5 
REMARK    3  A    between atoms: C_5  and  C_8 
REMARK    4  A    between atoms: C_8  and  N_9 
REMARK       I    between atoms: N_9  and  C_10 
REMARK    5  A    between atoms: C_10  and  C_12 
REMARK    6  A    between atoms: C_18  and  N_19 
ROOT
HETATM    1  C   UNL     1     -40.523 -50.556  12.261  1.00  0.00     0.070 A 
HETATM    2  C   UNL     1     -39.384 -51.318  12.581  1.00  0.00     0.022 A 
HETATM    3  C   UNL     1     -38.125 -50.787  12.405  1.00  0.00     0.018 A 
HETATM    4  C   UNL     1     -38.049 -49.507  11.913  1.00  0.00     0.089 A 
HETATM    5  N   UNL     1     -39.132 -48.733  11.614  1.00  0.00    -0.356 N 
ATOM      6  HN  UNL     1     -39.010 -47.782  11.268  1.00  0.00     0.166 HD
HETATM    7  C   UNL     1     -40.377 -49.252  11.784  1.00  0.00     0.098 A 
ENDROOT
BRANCH   1   8
HETATM    8  C   UNL     1     -41.789 -51.279  12.397  1.00  0.00     0.254 C 
HETATM    9  N   UNL     1     -42.837 -50.699  13.085  1.00  0.00    -0.356 N 
HETATM   10  H   UNL     1     -42.661 -49.754  13.415  1.00  0.00     0.162 HD
HETATM   11  O   UNL     1     -41.790 -52.379  11.851  1.00  0.00    -0.268 OA
BRANCH   9  12
HETATM   12  C   UNL     1     -44.242 -51.164  13.146  1.00  0.00     0.133 C 
BRANCH  12  13
HETATM   13  C   UNL     1     -44.874 -51.407  14.551  1.00  0.00    -0.005 C 
HETATM   14  C   UNL     1     -46.417 -51.359  14.400  1.00  0.00     0.018 C 
HETATM   15  C   UNL     1     -44.214 -50.388  15.519  1.00  0.00     0.018 C 
BRANCH  13  16
HETATM   16  C   UNL     1     -44.540 -52.849  15.082  1.00  0.00     0.281 C 
BRANCH  16  17
HETATM   17  N   UNL     1     -44.190 -53.874  14.062  1.00  0.00     0.080 N 
HETATM   18  C   UNL     1     -42.916 -54.510  14.386  1.00  0.00     0.309 C 
HETATM   19  C   UNL     1     -45.202 -54.909  13.844  1.00  0.00     0.309 C 
ENDBRANCH  16  17
ENDBRANCH  13  16
ENDBRANCH  12  13
ENDBRANCH   9  12
ENDBRANCH   1   8
BRANCH   7  20
HETATM   20  N   UNL     1     -41.473 -48.412  11.569  1.00  0.00    -0.265 NA
HETATM   21  C   UNL     1     -41.443 -47.155  12.343  1.00  0.00     0.123 C 
HETATM   22  C   UNL     1     -42.872 -46.591  12.355  1.00  0.00     0.182 C 
HETATM   23  O   UNL     1     -43.356 -46.347  11.020  1.00  0.00    -0.389 OA
HETATM   24  C   UNL     1     -43.307 -47.547  10.225  1.00  0.00     0.182 C 
HETATM   25  C   UNL     1     -41.878 -48.134  10.172  1.00  0.00     0.123 C 
ENDBRANCH   7  20
TORSDOF 6
ENDMDL
MODEL 4
REMARK VINA RESULT:      -5.4      2.600      5.323
REMARK  6 active torsions:
REMARK  status: ('A' for Active; 'I' for Inactive)
REMARK    1  A    between atoms: N_2  and  C_4 
REMARK    2  A    between atoms: C_4  and  C_5 
REMARK    3  A    between atoms: C_5  and  C_8 
REMARK    4  A    between atoms: C_8  and  N_9 
REMARK       I    between atoms: N_9  and  C_10 
REMARK    5  A    between atoms: C_10  and  C_12 
REMARK    6  A    between atoms: C_18  and  N_19 
ROOT
HETATM    1  C   UNL     1     -41.617 -54.885  15.509  1.00  0.00     0.070 A 
HETATM    2  C   UNL     1     -41.383 -55.864  16.493  1.00  0.00     0.022 A 
HETATM    3  C   UNL     1     -40.093 -56.196  16.845  1.00  0.00     0.018 A 
HETATM    4  C   UNL     1     -39.079 -55.534  16.198  1.00  0.00     0.089 A 
HETATM    5  N   UNL     1     -39.270 -54.565  15.256  1.00  0.00    -0.356 N 
ATOM      6  HN  UNL     1     -38.474 -54.097  14.825  1.00  0.00     0.166 HD
HETATM    7  C   UNL     1     -40.540 -54.235  14.904  1.00  0.00     0.098 A 
ENDROOT
BRANCH   1   8
HETATM    8  C   UNL     1     -43.028 -54.709  15.160  1.00  0.00     0.254 C 
HETATM    9  N   UNL     1     -43.522 -53.440  14.929  1.00  0.00    -0.356 N 
HETATM   10  H   UNL     1     -42.828 -52.698  14.970  1.00  0.00     0.162 HD
HETATM   11  O   UNL     1     -43.657 -55.762  15.099  1.00  0.00    -0.268 OA
BRANCH   9  12
HETATM   12  C   UNL     1     -44.840 -53.075  14.361  1.00  0.00     0.133 C 
BRANCH  12  13
HETATM   13  C   UNL     1     -45.306 -51.591  14.483  1.00  0.00    -0.005 C 
HETATM   14  C   UNL     1     -46.617 -51.430  13.671  1.00  0.00     0.018 C 
HETATM   15  C   UNL     1     -44.095 -50.709  14.078  1.00  0.00     0.018 C 
BRANCH  13  16
HETATM   16  C   UNL     1     -45.676 -51.234  15.970  1.00  0.00     0.281 C 
BRANCH  16  17
HETATM   17  N   UNL     1     -46.816 -51.975  16.573  1.00  0.00     0.080 N 
HETATM   18  C   UNL     1     -46.354 -52.835  17.660  1.00  0.00     0.309 C 
HETATM   19  C   UNL     1     -47.918 -51.142  17.055  1.00  0.00     0.309 C 
ENDBRANCH  16  17
ENDBRANCH  13  16
ENDBRANCH  12  13
ENDBRANCH   9  12
ENDBRANCH   1   8
BRANCH   7  20
HETATM   20  N   UNL     1     -40.720 -53.172  14.015  1.00  0.00    -0.265 NA
HETATM   21  C   UNL     1     -39.785 -52.046  14.210  1.00  0.00     0.123 C 
HETATM   22  C   UNL     1     -40.388 -50.823  13.501  1.00  0.00     0.182 C 
HETATM   23  O   UNL     1     -40.590 -51.071  12.096  1.00  0.00    -0.389 OA
HETATM   24  C   UNL     1     -41.429 -52.223  11.889  1.00  0.00     0.182 C 
HETATM   25  C   UNL     1     -40.843 -53.481  12.571  1.00  0.00     0.123 C 
ENDBRANCH   7  20
TORSDOF 6
ENDMDL
MODEL 5
REMARK VINA RESULT:      -5.4      1.898      6.073
REMARK  6 active torsions:
REMARK  status: ('A' for Active; 'I' for Inactive)
REMARK    1  A    between atoms: N_2  and  C_4 
REMARK    2  A    between atoms: C_4  and  C_5 
REMARK    3  A    between atoms: C_5  and  C_8 
REMARK    4  A    between atoms: C_8  and  N_9 
REMARK       I    between atoms: N_9  and  C_10 
REMARK    5  A    between atoms: C_10  and  C_12 
REMARK    6  A    between atoms: C_18  and  N_19 
ROOT
HETATM    1  C   UNL     1     -44.252 -51.272  13.417  1.00  0.00     0.070 A 
HETATM    2  C   UNL     1     -45.657 -51.319  13.475  1.00  0.00     0.022 A 
HETATM    3  C   UNL     1     -46.310 -52.532  13.442  1.00  0.00     0.018 A 
HETATM    4  C   UNL     1     -45.531 -53.659  13.352  1.00  0.00     0.089 A 
HETATM    5  N   UNL     1     -44.167 -53.651  13.317  1.00  0.00    -0.356 N 
ATOM      6  HN  UNL     1     -43.644 -54.525  13.269  1.00  0.00     0.166 HD
HETATM    7  C   UNL     1     -43.517 -52.458  13.347  1.00  0.00     0.098 A 
ENDROOT
BRANCH   1   8
HETATM    8  C   UNL     1     -43.697 -49.919  13.354  1.00  0.00     0.254 C 
HETATM    9  N   UNL     1     -43.534 -49.303  12.129  1.00  0.00    -0.356 N 
HETATM   10  H   UNL     1     -43.873 -49.838  11.333  1.00  0.00     0.162 HD
HETATM   11  O   UNL     1     -43.427 -49.443  14.454  1.00  0.00    -0.268 OA
BRANCH   9  12
HETATM   12  C   UNL     1     -43.201 -47.883  11.870  1.00  0.00     0.133 C 
BRANCH  12  13
HETATM   13  C   UNL     1     -42.220 -47.562  10.701  1.00  0.00    -0.005 C 
HETATM   14  C   UNL     1     -43.023 -47.596   9.374  1.00  0.00     0.018 C 
HETATM   15  C   UNL     1     -41.021 -48.539  10.842  1.00  0.00     0.018 C 
BRANCH  13  16
HETATM   16  C   UNL     1     -41.654 -46.099  10.822  1.00  0.00     0.281 C 
BRANCH  16  17
HETATM   17  N   UNL     1     -40.195 -45.964  11.081  1.00  0.00     0.080 N 
HETATM   18  C   UNL     1     -39.575 -45.082  10.096  1.00  0.00     0.309 C 
HETATM   19  C   UNL     1     -39.840 -45.507  12.426  1.00  0.00     0.309 C 
ENDBRANCH  16  17
ENDBRANCH  13  16
ENDBRANCH  12  13
ENDBRANCH   9  12
ENDBRANCH   1   8
BRANCH   7  20
HETATM   20  N   UNL     1     -42.122 -52.472  13.413  1.00  0.00    -0.265 NA
HETATM   21  C   UNL     1     -41.552 -53.651  14.096  1.00  0.00     0.123 C 
HETATM   22  C   UNL     1     -40.107 -53.301  14.483  1.00  0.00     0.182 C 
HETATM   23  O   UNL     1     -39.317 -52.960  13.327  1.00  0.00    -0.389 OA
HETATM   24  C   UNL     1     -39.910 -51.867  12.600  1.00  0.00     0.182 C 
HETATM   25  C   UNL     1     -41.360 -52.190  12.174  1.00  0.00     0.123 C 
ENDBRANCH   7  20
TORSDOF 6
ENDMDL
MODEL 6
REMARK VINA RESULT:      -5.4      4.027      6.244
REMARK  6 active torsions:
REMARK  status: ('A' for Active; 'I' for Inactive)
REMARK    1  A    between atoms: N_2  and  C_4 
REMARK    2  A    between atoms: C_4  and  C_5 
REMARK    3  A    between atoms: C_5  and  C_8 
REMARK    4  A    between atoms: C_8  and  N_9 
REMARK       I    between atoms: N_9  and  C_10 
REMARK    5  A    between atoms: C_10  and  C_12 
REMARK    6  A    between atoms: C_18  and  N_19 
ROOT
HETATM    1  C   UNL     1     -42.591 -47.421  10.435  1.00  0.00     0.070 A 
HETATM    2  C   UNL     1     -43.362 -47.721   9.297  1.00  0.00     0.022 A 
HETATM    3  C   UNL     1     -44.025 -46.716   8.626  1.00  0.00     0.018 A 
HETATM    4  C   UNL     1     -43.892 -45.442   9.120  1.00  0.00     0.089 A 
HETATM    5  N   UNL     1     -43.136 -45.114  10.207  1.00  0.00    -0.356 N 
ATOM      6  HN  UNL     1     -43.063 -44.144  10.514  1.00  0.00     0.166 HD
HETATM    7  C   UNL     1     -42.482 -46.100  10.874  1.00  0.00     0.098 A 
ENDROOT
BRANCH   1   8
HETATM    8  C   UNL     1     -42.031 -48.595  11.108  1.00  0.00     0.254 C 
HETATM    9  N   UNL     1     -40.824 -49.115  10.682  1.00  0.00    -0.356 N 
HETATM   10  H   UNL     1     -40.372 -48.592   9.937  1.00  0.00     0.162 HD
HETATM   11  O   UNL     1     -42.723 -49.012  12.033  1.00  0.00    -0.268 OA
BRANCH   9  12
HETATM   12  C   UNL     1     -39.998 -50.143  11.357  1.00  0.00     0.133 C 
BRANCH  12  13
HETATM   13  C   UNL     1     -38.727 -49.671  12.129  1.00  0.00    -0.005 C 
HETATM   14  C   UNL     1     -39.006 -48.255  12.696  1.00  0.00     0.018 C 
HETATM   15  C   UNL     1     -37.528 -49.834  11.156  1.00  0.00     0.018 C 
BRANCH  13  16
HETATM   16  C   UNL     1     -38.451 -50.586  13.378  1.00  0.00     0.281 C 
BRANCH  16  17
HETATM   17  N   UNL     1     -39.594 -51.394  13.882  1.00  0.00     0.080 N 
HETATM   18  C   UNL     1     -39.194 -52.784  14.085  1.00  0.00     0.309 C 
HETATM   19  C   UNL     1     -40.222 -50.892  15.105  1.00  0.00     0.309 C 
ENDBRANCH  16  17
ENDBRANCH  13  16
ENDBRANCH  12  13
ENDBRANCH   9  12
ENDBRANCH   1   8
BRANCH   7  20
HETATM   20  N   UNL     1     -41.633 -45.734  11.921  1.00  0.00    -0.265 NA
HETATM   21  C   UNL     1     -40.723 -44.613  11.609  1.00  0.00     0.123 C 
HETATM   22  C   UNL     1     -39.588 -44.643  12.645  1.00  0.00     0.182 C 
HETATM   23  O   UNL     1     -40.095 -44.519  13.988  1.00  0.00    -0.389 OA
HETATM   24  C   UNL     1     -41.053 -45.556  14.277  1.00  0.00     0.182 C 
HETATM   25  C   UNL     1     -42.222 -45.544  13.266  1.00  0.00     0.123 C 
ENDBRANCH   7  20
TORSDOF 6
ENDMDL
MODEL 7
REMARK VINA RESULT:      -5.3      1.112      2.087
REMARK  6 active torsions:
REMARK  status: ('A' for Active; 'I' for Inactive)
REMARK    1  A    between atoms: N_2  and  C_4 
REMARK    2  A    between atoms: C_4  and  C_5 
REMARK    3  A    between atoms: C_5  and  C_8 
REMARK    4  A    between atoms: C_8  and  N_9 
REMARK       I    between atoms: N_9  and  C_10 
REMARK    5  A    between atoms: C_10  and  C_12 
REMARK    6  A    between atoms: C_18  and  N_19 
ROOT
HETATM    1  C   UNL     1     -42.723 -49.327  12.490  1.00  0.00     0.070 A 
HETATM    2  C   UNL     1     -43.333 -48.245  11.830  1.00  0.00     0.022 A 
HETATM    3  C   UNL     1     -42.755 -47.709  10.699  1.00  0.00     0.018 A 
HETATM    4  C   UNL     1     -41.582 -48.278  10.267  1.00  0.00     0.089 A 
HETATM    5  N   UNL     1     -40.976 -49.342  10.870  1.00  0.00    -0.356 N 
ATOM      6  HN  UNL     1     -40.113 -49.731  10.489  1.00  0.00     0.166 HD
HETATM    7  C   UNL     1     -41.540 -49.873  11.986  1.00  0.00     0.098 A 
ENDROOT
BRANCH   1   8
HETATM    8  C   UNL     1     -43.386 -49.726  13.732  1.00  0.00     0.254 C 
HETATM    9  N   UNL     1     -44.123 -50.893  13.770  1.00  0.00    -0.356 N 
HETATM   10  H   UNL     1     -44.106 -51.437  12.911  1.00  0.00     0.162 HD
HETATM   11  O   UNL     1     -43.204 -48.945  14.662  1.00  0.00    -0.268 OA
BRANCH   9  12
HETATM   12  C   UNL     1     -44.679 -51.570  14.964  1.00  0.00     0.133 C 
BRANCH  12  13
HETATM   13  C   UNL     1     -46.127 -52.142  14.875  1.00  0.00    -0.005 C 
HETATM   14  C   UNL     1     -46.037 -53.691  14.906  1.00  0.00     0.018 C 
HETATM   15  C   UNL     1     -46.792 -51.485  13.636  1.00  0.00     0.018 C 
BRANCH  13  16
HETATM   16  C   UNL     1     -46.975 -51.738  16.137  1.00  0.00     0.281 C 
BRANCH  16  17
HETATM   17  N   UNL     1     -46.217 -51.363  17.361  1.00  0.00     0.080 N 
HETATM   18  C   UNL     1     -46.719 -50.108  17.914  1.00  0.00     0.309 C 
HETATM   19  C   UNL     1     -46.194 -52.377  18.416  1.00  0.00     0.309 C 
ENDBRANCH  16  17
ENDBRANCH  13  16
ENDBRANCH  12  13
ENDBRANCH   9  12
ENDBRANCH   1   8
BRANCH   7  20
HETATM   20  N   UNL     1     -40.962 -51.023  12.530  1.00  0.00    -0.265 NA
HETATM   21  C   UNL     1     -41.338 -52.278  11.850  1.00  0.00     0.123 C 
HETATM   22  C   UNL     1     -41.015 -53.433  12.811  1.00  0.00     0.182 C 
HETATM   23  O   UNL     1     -39.617 -53.452  13.165  1.00  0.00    -0.389 OA
HETATM   24  C   UNL     1     -39.215 -52.199  13.749  1.00  0.00     0.182 C 
HETATM   25  C   UNL     1     -39.506 -51.013  12.802  1.00  0.00     0.123 C 
ENDBRANCH   7  20
TORSDOF 6
ENDMDL
MODEL 8
REMARK VINA RESULT:      -5.3      2.732      5.833
REMARK  6 active torsions:
REMARK  status: ('A' for Active; 'I' for Inactive)
REMARK    1  A    between atoms: N_2  and  C_4 
REMARK    2  A    between atoms: C_4  and  C_5 
REMARK    3  A    between atoms: C_5  and  C_8 
REMARK    4  A    between atoms: C_8  and  N_9 
REMARK       I    between atoms: N_9  and  C_10 
REMARK    5  A    between atoms: C_10  and  C_12 
REMARK    6  A    between atoms: C_18  and  N_19 
ROOT
HETATM    1  C   UNL     1     -42.178 -51.637  13.255  1.00  0.00     0.070 A 
HETATM    2  C   UNL     1     -43.011 -52.769  13.326  1.00  0.00     0.022 A 
HETATM    3  C   UNL     1     -42.462 -54.034  13.307  1.00  0.00     0.018 A 
HETATM    4  C   UNL     1     -41.095 -54.120  13.219  1.00  0.00     0.089 A 
HETATM    5  N   UNL     1     -40.258 -53.043  13.171  1.00  0.00    -0.356 N 
ATOM      6  HN  UNL     1     -39.247 -53.174  13.124  1.00  0.00     0.166 HD
HETATM    7  C   UNL     1     -40.793 -51.794  13.187  1.00  0.00     0.098 A 
ENDROOT
BRANCH   1   8
HETATM    8  C   UNL     1     -42.899 -50.365  13.178  1.00  0.00     0.254 C 
HETATM    9  N   UNL     1     -42.589 -49.464  12.178  1.00  0.00    -0.356 N 
HETATM   10  H   UNL     1     -41.892 -49.787  11.512  1.00  0.00     0.162 HD
HETATM   11  O   UNL     1     -43.752 -50.226  14.050  1.00  0.00    -0.268 OA
BRANCH   9  12
HETATM   12  C   UNL     1     -43.337 -48.241  11.803  1.00  0.00     0.133 C 
BRANCH  12  13
HETATM   13  C   UNL     1     -42.538 -47.058  11.174  1.00  0.00    -0.005 C 
HETATM   14  C   UNL     1     -41.165 -47.601  10.700  1.00  0.00     0.018 C 
HETATM   15  C   UNL     1     -42.537 -45.914  12.224  1.00  0.00     0.018 C 
BRANCH  13  16
HETATM   16  C   UNL     1     -43.253 -46.514   9.883  1.00  0.00     0.281 C 
BRANCH  16  17
HETATM   17  N   UNL     1     -44.068 -47.489   9.108  1.00  0.00     0.080 N 
HETATM   18  C   UNL     1     -45.452 -47.033   9.001  1.00  0.00     0.309 C 
HETATM   19  C   UNL     1     -43.562 -47.803   7.772  1.00  0.00     0.309 C 
ENDBRANCH  16  17
ENDBRANCH  13  16
ENDBRANCH  12  13
ENDBRANCH   9  12
ENDBRANCH   1   8
BRANCH   7  20
HETATM   20  N   UNL     1     -39.918 -50.706  13.240  1.00  0.00    -0.265 NA
HETATM   21  C   UNL     1     -39.442 -50.368  14.596  1.00  0.00     0.123 C 
HETATM   22  C   UNL     1     -38.895 -48.933  14.544  1.00  0.00     0.182 C 
HETATM   23  O   UNL     1     -37.822 -48.810  13.590  1.00  0.00    -0.389 OA
HETATM   24  C   UNL     1     -38.248 -49.222  12.277  1.00  0.00     0.182 C 
HETATM   25  C   UNL     1     -38.786 -50.671  12.285  1.00  0.00     0.123 C 
ENDBRANCH   7  20
TORSDOF 6
ENDMDL
MODEL 9
REMARK VINA RESULT:      -5.3      1.924      5.298
REMARK  6 active torsions:
REMARK  status: ('A' for Active; 'I' for Inactive)
REMARK    1  A    between atoms: N_2  and  C_4 
REMARK    2  A    between atoms: C_4  and  C_5 
REMARK    3  A    between atoms: C_5  and  C_8 
REMARK    4  A    between atoms: C_8  and  N_9 
REMARK       I    between atoms: N_9  and  C_10 
REMARK    5  A    between atoms: C_10  and  C_12 
REMARK    6  A    between atoms: C_18  and  N_19 
ROOT
HETATM    1  C   UNL     1     -44.387 -51.177  13.902  1.00  0.00     0.070 A 
HETATM    2  C   UNL     1     -45.794 -51.192  13.900  1.00  0.00     0.022 A 
HETATM    3  C   UNL     1     -46.475 -52.092  13.109  1.00  0.00     0.018 A 
HETATM    4  C   UNL     1     -45.720 -52.949  12.346  1.00  0.00     0.089 A 
HETATM    5  N   UNL     1     -44.356 -52.976  12.341  1.00  0.00    -0.356 N 
ATOM      6  HN  UNL     1     -43.852 -53.650  11.765  1.00  0.00     0.166 HD
HETATM    7  C   UNL     1     -43.679 -52.089  13.117  1.00  0.00     0.098 A 
ENDROOT
BRANCH   1   8
HETATM    8  C   UNL     1     -43.798 -50.103  14.704  1.00  0.00     0.254 C 
HETATM    9  N   UNL     1     -42.969 -49.177  14.103  1.00  0.00    -0.356 N 
HETATM   10  H   UNL     1     -42.866 -49.284  13.097  1.00  0.00     0.162 HD
HETATM   11  O   UNL     1     -44.125 -50.133  15.888  1.00  0.00    -0.268 OA
BRANCH   9  12
HETATM   12  C   UNL     1     -42.459 -47.913  14.683  1.00  0.00     0.133 C 
BRANCH  12  13
HETATM   13  C   UNL     1     -42.420 -46.649  13.768  1.00  0.00    -0.005 C 
HETATM   14  C   UNL     1     -40.937 -46.241  13.573  1.00  0.00     0.018 C 
HETATM   15  C   UNL     1     -43.376 -45.606  14.408  1.00  0.00     0.018 C 
BRANCH  13  16
HETATM   16  C   UNL     1     -42.969 -46.974  12.330  1.00  0.00     0.281 C 
BRANCH  16  17
HETATM   17  N   UNL     1     -41.995 -46.890  11.208  1.00  0.00     0.080 N 
HETATM   18  C   UNL     1     -41.840 -48.190  10.561  1.00  0.00     0.309 C 
HETATM   19  C   UNL     1     -42.300 -45.881  10.192  1.00  0.00     0.309 C 
ENDBRANCH  16  17
ENDBRANCH  13  16
ENDBRANCH  12  13
ENDBRANCH   9  12
ENDBRANCH   1   8
BRANCH   7  20
HETATM   20  N   UNL     1     -42.288 -52.198  13.177  1.00  0.00    -0.265 NA
HETATM   21  C   UNL     1     -41.794 -53.525  13.597  1.00  0.00     0.123 C 
HETATM   22  C   UNL     1     -40.336 -53.348  14.048  1.00  0.00     0.182 C 
HETATM   23  O   UNL     1     -39.514 -52.819  12.989  1.00  0.00    -0.389 OA
HETATM   24  C   UNL     1     -40.035 -51.565  12.508  1.00  0.00     0.182 C 
HETATM   25  C   UNL     1     -41.497 -51.707  12.025  1.00  0.00     0.123 C 
ENDBRANCH   7  20
TORSDOF 6
ENDMDL
