MODEL 1
REMARK VINA RESULT:      -6.6      0.000      0.000
REMARK  4 active torsions:
REMARK  status: ('A' for Active; 'I' for Inactive)
REMARK    1  A    between atoms: C_8  and  N_9 
REMARK       I    between atoms: N_9  and  C_10 
REMARK       I    between atoms: C_10  and  N_12 
REMARK    2  A    between atoms: N_12  and  C_13 
REMARK    3  A    between atoms: N_16  and  C_17 
REMARK    4  A    between atoms: C_17  and  C_18 
ROOT
HETATM    1  N   UNL     1     -44.780 -51.312  12.712  1.00  0.00    -0.306 N 
HETATM    2  C   UNL     1     -43.574 -50.751  13.072  1.00  0.00     0.321 C 
HETATM    3  O   UNL     1     -42.846 -51.132  13.981  1.00  0.00    -0.247 OA
HETATM    4  N   UNL     1     -43.260 -49.659  12.297  1.00  0.00    -0.338 N 
HETATM    5  H   UNL     1     -45.394 -50.761  12.131  1.00  0.00     0.171 HD
HETATM    6  H   UNL     1     -43.711 -49.586  11.397  1.00  0.00     0.164 HD
ENDROOT
BRANCH   4   7
HETATM    7  C   UNL     1     -41.977 -48.980  12.485  1.00  0.00     0.089 C 
HETATM    8  C   UNL     1     -42.171 -47.664  13.236  1.00  0.00     0.055 C 
HETATM    9  C   UNL     1     -42.692 -46.553  12.319  1.00  0.00     0.274 C 
HETATM   10  N   UNL     1     -41.869 -46.344  11.110  1.00  0.00     0.089 N 
HETATM   11  C   UNL     1     -41.791 -47.603  10.353  1.00  0.00     0.274 C 
HETATM   12  C   UNL     1     -41.229 -48.773  11.159  1.00  0.00     0.055 C 
BRANCH  10  13
HETATM   13  C   UNL     1     -40.562 -45.765  11.468  1.00  0.00     0.279 C 
BRANCH  13  14
HETATM   14  C   UNL     1     -40.565 -44.544  12.391  1.00  0.00     0.040 C 
HETATM   15  C   UNL     1     -40.892 -43.267  11.627  1.00  0.00     0.035 C 
HETATM   16  C   UNL     1     -40.082 -42.187  12.317  1.00  0.00     0.168 C 
HETATM   17  O   UNL     1     -39.354 -42.817  13.378  1.00  0.00    -0.391 OA
HETATM   18  C   UNL     1     -39.239 -44.208  13.038  1.00  0.00     0.173 C 
ENDBRANCH  13  14
ENDBRANCH  10  13
ENDBRANCH   4   7
BRANCH   1  19
HETATM   19  C   UNL     1     -45.342 -52.481  13.283  1.00  0.00     0.077 A 
HETATM   20  C   UNL     1     -46.484 -52.351  14.068  1.00  0.00     0.158 A 
HETATM   21  F   UNL     1     -47.039 -51.147  14.267  1.00  0.00    -0.202 F 
HETATM   22  C   UNL     1     -47.025 -53.479  14.659  1.00  0.00     0.132 A 
HETATM   23  N   UNL     1     -46.518 -54.725  14.507  1.00  0.00    -0.372 N 
HETATM   24  C   UNL     1     -45.421 -54.833  13.725  1.00  0.00     0.090 A 
ATOM     25  HN  UNL     1     -46.940 -55.537  14.958  1.00  0.00     0.164 HD
HETATM   26  C   UNL     1     -44.813 -53.756  13.094  1.00  0.00     0.050 A 
ENDBRANCH   1  19
TORSDOF 4
ENDMDL
MODEL 2
REMARK VINA RESULT:      -5.7      1.482      1.842
REMARK  4 active torsions:
REMARK  status: ('A' for Active; 'I' for Inactive)
REMARK    1  A    between atoms: C_8  and  N_9 
REMARK       I    between atoms: N_9  and  C_10 
REMARK       I    between atoms: C_10  and  N_12 
REMARK    2  A    between atoms: N_12  and  C_13 
REMARK    3  A    between atoms: N_16  and  C_17 
REMARK    4  A    between atoms: C_17  and  C_18 
ROOT
HETATM    1  N   UNL     1     -43.690 -51.243  13.054  1.00  0.00    -0.306 N 
HETATM    2  C   UNL     1     -42.555 -50.769  12.434  1.00  0.00     0.321 C 
HETATM    3  O   UNL     1     -41.523 -51.400  12.241  1.00  0.00    -0.247 OA
HETATM    4  N   UNL     1     -42.685 -49.453  12.054  1.00  0.00    -0.338 N 
HETATM    5  H   UNL     1     -44.361 -50.563  13.377  1.00  0.00     0.171 HD
HETATM    6  H   UNL     1     -43.622 -49.093  11.948  1.00  0.00     0.164 HD
ENDROOT
BRANCH   4   7
HETATM    7  C   UNL     1     -41.606 -48.802  11.310  1.00  0.00     0.089 C 
HETATM    8  C   UNL     1     -40.715 -47.994  12.253  1.00  0.00     0.055 C 
HETATM    9  C   UNL     1     -41.348 -46.651  12.627  1.00  0.00     0.274 C 
HETATM   10  N   UNL     1     -41.745 -45.834  11.463  1.00  0.00     0.089 N 
HETATM   11  C   UNL     1     -42.686 -46.599  10.631  1.00  0.00     0.274 C 
HETATM   12  C   UNL     1     -42.135 -47.942  10.151  1.00  0.00     0.055 C 
BRANCH  10  13
HETATM   13  C   UNL     1     -40.554 -45.346  10.744  1.00  0.00     0.279 C 
BRANCH  13  14
HETATM   14  C   UNL     1     -40.079 -43.925  11.059  1.00  0.00     0.040 C 
HETATM   15  C   UNL     1     -39.338 -43.866  12.389  1.00  0.00     0.035 C 
HETATM   16  C   UNL     1     -39.681 -42.503  12.960  1.00  0.00     0.168 C 
HETATM   17  O   UNL     1     -40.551 -41.858  12.023  1.00  0.00    -0.391 OA
HETATM   18  C   UNL     1     -41.172 -42.895  11.247  1.00  0.00     0.173 C 
ENDBRANCH  13  14
ENDBRANCH  10  13
ENDBRANCH   4   7
BRANCH   1  19
HETATM   19  C   UNL     1     -43.883 -52.574  13.501  1.00  0.00     0.077 A 
HETATM   20  C   UNL     1     -44.917 -53.318  12.941  1.00  0.00     0.158 A 
HETATM   21  F   UNL     1     -45.701 -52.785  11.992  1.00  0.00    -0.202 F 
HETATM   22  C   UNL     1     -45.138 -54.607  13.391  1.00  0.00     0.132 A 
HETATM   23  N   UNL     1     -44.392 -55.209  14.347  1.00  0.00    -0.372 N 
HETATM   24  C   UNL     1     -43.380 -54.477  14.865  1.00  0.00     0.090 A 
ATOM     25  HN  UNL     1     -44.582 -56.161  14.659  1.00  0.00     0.164 HD
HETATM   26  C   UNL     1     -43.087 -53.178  14.473  1.00  0.00     0.050 A 
ENDBRANCH   1  19
TORSDOF 4
ENDMDL
MODEL 3
REMARK VINA RESULT:      -5.6      4.693      5.466
REMARK  4 active torsions:
REMARK  status: ('A' for Active; 'I' for Inactive)
REMARK    1  A    between atoms: C_8  and  N_9 
REMARK       I    between atoms: N_9  and  C_10 
REMARK       I    between atoms: C_10  and  N_12 
REMARK    2  A    between atoms: N_12  and  C_13 
REMARK    3  A    between atoms: N_16  and  C_17 
REMARK    4  A    between atoms: C_17  and  C_18 
ROOT
HETATM    1  N   UNL     1     -39.659 -53.324  15.496  1.00  0.00    -0.306 N 
HETATM    2  C   UNL     1     -39.779 -53.084  14.145  1.00  0.00     0.321 C 
HETATM    3  O   UNL     1     -39.720 -53.925  13.257  1.00  0.00    -0.247 OA
HETATM    4  N   UNL     1     -39.956 -51.747  13.871  1.00  0.00    -0.338 N 
HETATM    5  H   UNL     1     -39.469 -52.533  16.094  1.00  0.00     0.171 HD
HETATM    6  H   UNL     1     -40.307 -51.165  14.618  1.00  0.00     0.164 HD
ENDROOT
BRANCH   4   7
HETATM    7  C   UNL     1     -40.181 -51.313  12.492  1.00  0.00     0.089 C 
HETATM    8  C   UNL     1     -39.343 -50.074  12.176  1.00  0.00     0.055 C 
HETATM    9  C   UNL     1     -39.972 -48.798  12.744  1.00  0.00     0.274 C 
HETATM   10  N   UNL     1     -41.376 -48.593  12.334  1.00  0.00     0.089 N 
HETATM   11  C   UNL     1     -42.177 -49.754  12.747  1.00  0.00     0.274 C 
HETATM   12  C   UNL     1     -41.670 -51.084  12.189  1.00  0.00     0.055 C 
BRANCH  10  13
HETATM   13  C   UNL     1     -41.453 -48.279  10.896  1.00  0.00     0.279 C 
BRANCH  13  14
HETATM   14  C   UNL     1     -42.530 -47.286  10.452  1.00  0.00     0.040 C 
HETATM   15  C   UNL     1     -43.160 -47.699   9.128  1.00  0.00     0.035 C 
HETATM   16  C   UNL     1     -43.480 -46.392   8.429  1.00  0.00     0.168 C 
HETATM   17  O   UNL     1     -43.054 -45.334   9.294  1.00  0.00    -0.391 OA
HETATM   18  C   UNL     1     -42.047 -45.881  10.160  1.00  0.00     0.173 C 
ENDBRANCH  13  14
ENDBRANCH  10  13
ENDBRANCH   4   7
BRANCH   1  19
HETATM   19  C   UNL     1     -39.528 -54.603  16.093  1.00  0.00     0.077 A 
HETATM   20  C   UNL     1     -40.677 -55.367  16.278  1.00  0.00     0.158 A 
HETATM   21  F   UNL     1     -41.873 -54.903  15.889  1.00  0.00    -0.202 F 
HETATM   22  C   UNL     1     -40.569 -56.604  16.889  1.00  0.00     0.132 A 
HETATM   23  N   UNL     1     -39.397 -57.135  17.311  1.00  0.00    -0.372 N 
HETATM   24  C   UNL     1     -38.291 -56.386  17.104  1.00  0.00     0.090 A 
ATOM     25  HN  UNL     1     -39.351 -58.050  17.760  1.00  0.00     0.164 HD
HETATM   26  C   UNL     1     -38.307 -55.136  16.500  1.00  0.00     0.050 A 
ENDBRANCH   1  19
TORSDOF 4
ENDMDL
MODEL 4
REMARK VINA RESULT:      -5.6      4.471      8.628
REMARK  4 active torsions:
REMARK  status: ('A' for Active; 'I' for Inactive)
REMARK    1  A    between atoms: C_8  and  N_9 
REMARK       I    between atoms: N_9  and  C_10 
REMARK       I    between atoms: C_10  and  N_12 
REMARK    2  A    between atoms: N_12  and  C_13 
REMARK    3  A    between atoms: N_16  and  C_17 
REMARK    4  A    between atoms: C_17  and  C_18 
ROOT
HETATM    1  N   UNL     1     -42.919 -48.706  11.530  1.00  0.00    -0.306 N 
HETATM    2  C   UNL     1     -41.733 -49.402  11.448  1.00  0.00     0.321 C 
HETATM    3  O   UNL     1     -40.815 -49.170  10.671  1.00  0.00    -0.247 OA
HETATM    4  N   UNL     1     -41.683 -50.445  12.344  1.00  0.00    -0.338 N 
HETATM    5  H   UNL     1     -43.683 -49.146  12.021  1.00  0.00     0.171 HD
HETATM    6  H   UNL     1     -42.296 -50.397  13.144  1.00  0.00     0.164 HD
ENDROOT
BRANCH   4   7
HETATM    7  C   UNL     1     -40.465 -51.250  12.454  1.00  0.00     0.089 C 
HETATM    8  C   UNL     1     -40.773 -52.726  12.209  1.00  0.00     0.055 C 
HETATM    9  C   UNL     1     -41.396 -53.392  13.440  1.00  0.00     0.274 C 
HETATM   10  N   UNL     1     -40.601 -53.226  14.673  1.00  0.00     0.089 N 
HETATM   11  C   UNL     1     -40.412 -51.792  14.940  1.00  0.00     0.274 C 
HETATM   12  C   UNL     1     -39.744 -51.034  13.794  1.00  0.00     0.055 C 
BRANCH  10  13
HETATM   13  C   UNL     1     -39.349 -54.001  14.589  1.00  0.00     0.279 C 
BRANCH  13  14
HETATM   14  C   UNL     1     -39.302 -55.339  15.330  1.00  0.00     0.040 C 
HETATM   15  C   UNL     1     -40.443 -55.464  16.332  1.00  0.00     0.035 C 
HETATM   16  C   UNL     1     -39.862 -56.267  17.479  1.00  0.00     0.168 C 
HETATM   17  O   UNL     1     -38.501 -56.560  17.145  1.00  0.00    -0.391 OA
HETATM   18  C   UNL     1     -38.081 -55.567  16.195  1.00  0.00     0.173 C 
ENDBRANCH  13  14
ENDBRANCH  10  13
ENDBRANCH   4   7
BRANCH   1  19
HETATM   19  C   UNL     1     -43.242 -47.547  10.781  1.00  0.00     0.077 A 
HETATM   20  C   UNL     1     -42.646 -46.341  11.139  1.00  0.00     0.158 A 
HETATM   21  F   UNL     1     -41.780 -46.286  12.160  1.00  0.00    -0.202 F 
HETATM   22  C   UNL     1     -42.977 -45.195  10.437  1.00  0.00     0.132 A 
HETATM   23  N   UNL     1     -43.845 -45.173   9.398  1.00  0.00    -0.372 N 
HETATM   24  C   UNL     1     -44.398 -46.357   9.055  1.00  0.00     0.090 A 
ATOM     25  HN  UNL     1     -44.070 -44.309   8.903  1.00  0.00     0.164 HD
HETATM   26  C   UNL     1     -44.124 -47.554   9.702  1.00  0.00     0.050 A 
ENDBRANCH   1  19
TORSDOF 4
ENDMDL
MODEL 5
REMARK VINA RESULT:      -5.5      5.099      6.030
REMARK  4 active torsions:
REMARK  status: ('A' for Active; 'I' for Inactive)
REMARK    1  A    between atoms: C_8  and  N_9 
REMARK       I    between atoms: N_9  and  C_10 
REMARK       I    between atoms: C_10  and  N_12 
REMARK    2  A    between atoms: N_12  and  C_13 
REMARK    3  A    between atoms: N_16  and  C_17 
REMARK    4  A    between atoms: C_17  and  C_18 
ROOT
HETATM    1  N   UNL     1     -43.550 -46.530   9.323  1.00  0.00    -0.306 N 
HETATM    2  C   UNL     1     -42.378 -46.969   9.899  1.00  0.00     0.321 C 
HETATM    3  O   UNL     1     -42.070 -48.137  10.103  1.00  0.00    -0.247 OA
HETATM    4  N   UNL     1     -41.558 -45.926  10.263  1.00  0.00    -0.338 N 
HETATM    5  H   UNL     1     -43.792 -45.558   9.446  1.00  0.00     0.171 HD
HETATM    6  H   UNL     1     -41.705 -45.040   9.802  1.00  0.00     0.164 HD
ENDROOT
BRANCH   4   7
HETATM    7  C   UNL     1     -40.234 -46.204  10.821  1.00  0.00     0.089 C 
HETATM    8  C   UNL     1     -40.348 -47.100  12.053  1.00  0.00     0.055 C 
HETATM    9  C   UNL     1     -40.772 -46.312  13.296  1.00  0.00     0.274 C 
HETATM   10  N   UNL     1     -39.914 -45.144  13.582  1.00  0.00     0.089 N 
HETATM   11  C   UNL     1     -39.911 -44.247  12.416  1.00  0.00     0.274 C 
HETATM   12  C   UNL     1     -39.448 -44.918  11.123  1.00  0.00     0.055 C 
BRANCH  10  13
HETATM   13  C   UNL     1     -38.576 -45.581  14.020  1.00  0.00     0.279 C 
BRANCH  13  14
HETATM   14  C   UNL     1     -38.499 -46.836  14.892  1.00  0.00     0.040 C 
HETATM   15  C   UNL     1     -38.548 -46.491  16.375  1.00  0.00     0.035 C 
HETATM   16  C   UNL     1     -37.666 -47.529  17.041  1.00  0.00     0.168 C 
HETATM   17  O   UNL     1     -37.159 -48.381  16.008  1.00  0.00    -0.391 OA
HETATM   18  C   UNL     1     -37.216 -47.632  14.784  1.00  0.00     0.173 C 
ENDBRANCH  13  14
ENDBRANCH  10  13
ENDBRANCH   4   7
BRANCH   1  19
HETATM   19  C   UNL     1     -44.565 -47.364   8.792  1.00  0.00     0.077 A 
HETATM   20  C   UNL     1     -44.306 -48.050   7.609  1.00  0.00     0.158 A 
HETATM   21  F   UNL     1     -43.119 -47.929   6.998  1.00  0.00    -0.202 F 
HETATM   22  C   UNL     1     -45.298 -48.843   7.061  1.00  0.00     0.132 A 
HETATM   23  N   UNL     1     -46.521 -49.010   7.619  1.00  0.00    -0.372 N 
HETATM   24  C   UNL     1     -46.746 -48.352   8.777  1.00  0.00     0.090 A 
ATOM     25  HN  UNL     1     -47.233 -49.601   7.188  1.00  0.00     0.164 HD
HETATM   26  C   UNL     1     -45.809 -47.536   9.397  1.00  0.00     0.050 A 
ENDBRANCH   1  19
TORSDOF 4
ENDMDL
MODEL 6
REMARK VINA RESULT:      -5.5      5.253      7.221
REMARK  4 active torsions:
REMARK  status: ('A' for Active; 'I' for Inactive)
REMARK    1  A    between atoms: C_8  and  N_9 
REMARK       I    between atoms: N_9  and  C_10 
REMARK       I    between atoms: C_10  and  N_12 
REMARK    2  A    between atoms: N_12  and  C_13 
REMARK    3  A    between atoms: N_16  and  C_17 
REMARK    4  A    between atoms: C_17  and  C_18 
ROOT
HETATM    1  N   UNL     1     -42.333 -47.657  11.817  1.00  0.00    -0.306 N 
HETATM    2  C   UNL     1     -41.347 -48.618  11.785  1.00  0.00     0.321 C 
HETATM    3  O   UNL     1     -41.082 -49.346  10.836  1.00  0.00    -0.247 OA
HETATM    4  N   UNL     1     -40.672 -48.706  12.981  1.00  0.00    -0.338 N 
HETATM    5  H   UNL     1     -42.617 -47.312  12.721  1.00  0.00     0.171 HD
HETATM    6  H   UNL     1     -40.708 -47.904  13.592  1.00  0.00     0.164 HD
ENDROOT
BRANCH   4   7
HETATM    7  C   UNL     1     -39.537 -49.622  13.108  1.00  0.00     0.089 C 
HETATM    8  C   UNL     1     -39.582 -50.349  14.451  1.00  0.00     0.055 C 
HETATM    9  C   UNL     1     -39.076 -49.467  15.596  1.00  0.00     0.274 C 
HETATM   10  N   UNL     1     -37.734 -48.896  15.360  1.00  0.00     0.089 N 
HETATM   11  C   UNL     1     -37.752 -48.113  14.116  1.00  0.00     0.274 C 
HETATM   12  C   UNL     1     -38.191 -48.913  12.889  1.00  0.00     0.055 C 
BRANCH  10  13
HETATM   13  C   UNL     1     -36.708 -49.954  15.401  1.00  0.00     0.279 C 
BRANCH  13  14
HETATM   14  C   UNL     1     -35.570 -49.787  16.410  1.00  0.00     0.040 C 
HETATM   15  C   UNL     1     -35.681 -50.792  17.550  1.00  0.00     0.035 C 
HETATM   16  C   UNL     1     -35.151 -50.057  18.765  1.00  0.00     0.168 C 
HETATM   17  O   UNL     1     -34.780 -48.742  18.336  1.00  0.00    -0.391 OA
HETATM   18  C   UNL     1     -35.532 -48.464  17.144  1.00  0.00     0.173 C 
ENDBRANCH  13  14
ENDBRANCH  10  13
ENDBRANCH   4   7
BRANCH   1  19
HETATM   19  C   UNL     1     -43.155 -47.291  10.722  1.00  0.00     0.077 A 
HETATM   20  C   UNL     1     -42.680 -46.335   9.827  1.00  0.00     0.158 A 
HETATM   21  F   UNL     1     -41.468 -45.788   9.997  1.00  0.00    -0.202 F 
HETATM   22  C   UNL     1     -43.485 -45.944   8.773  1.00  0.00     0.132 A 
HETATM   23  N   UNL     1     -44.720 -46.450   8.541  1.00  0.00    -0.372 N 
HETATM   24  C   UNL     1     -45.155 -47.389   9.409  1.00  0.00     0.090 A 
ATOM     25  HN  UNL     1     -45.290 -46.138   7.754  1.00  0.00     0.164 HD
HETATM   26  C   UNL     1     -44.415 -47.841  10.493  1.00  0.00     0.050 A 
ENDBRANCH   1  19
TORSDOF 4
ENDMDL
MODEL 7
REMARK VINA RESULT:      -5.4      4.105      4.652
REMARK  4 active torsions:
REMARK  status: ('A' for Active; 'I' for Inactive)
REMARK    1  A    between atoms: C_8  and  N_9 
REMARK       I    between atoms: N_9  and  C_10 
REMARK       I    between atoms: C_10  and  N_12 
REMARK    2  A    between atoms: N_12  and  C_13 
REMARK    3  A    between atoms: N_16  and  C_17 
REMARK    4  A    between atoms: C_17  and  C_18 
ROOT
HETATM    1  N   UNL     1     -43.502 -52.247  13.349  1.00  0.00    -0.306 N 
HETATM    2  C   UNL     1     -42.202 -52.458  13.753  1.00  0.00     0.321 C 
HETATM    3  O   UNL     1     -41.819 -53.335  14.517  1.00  0.00    -0.247 OA
HETATM    4  N   UNL     1     -41.337 -51.534  13.213  1.00  0.00    -0.338 N 
HETATM    5  H   UNL     1     -43.721 -51.354  12.934  1.00  0.00     0.171 HD
HETATM    6  H   UNL     1     -41.635 -51.056  12.376  1.00  0.00     0.164 HD
ENDROOT
BRANCH   4   7
HETATM    7  C   UNL     1     -39.900 -51.648  13.469  1.00  0.00     0.089 C 
HETATM    8  C   UNL     1     -39.582 -51.271  14.916  1.00  0.00     0.055 C 
HETATM    9  C   UNL     1     -39.559 -49.753  15.119  1.00  0.00     0.274 C 
HETATM   10  N   UNL     1     -38.660 -49.041  14.188  1.00  0.00     0.089 N 
HETATM   11  C   UNL     1     -39.060 -49.340  12.804  1.00  0.00     0.274 C 
HETATM   12  C   UNL     1     -39.064 -50.831  12.472  1.00  0.00     0.055 C 
BRANCH  10  13
HETATM   13  C   UNL     1     -37.251 -49.346  14.495  1.00  0.00     0.279 C 
BRANCH  13  14
HETATM   14  C   UNL     1     -36.798 -49.176  15.947  1.00  0.00     0.040 C 
HETATM   15  C   UNL     1     -36.459 -47.724  16.260  1.00  0.00     0.035 C 
HETATM   16  C   UNL     1     -35.320 -47.802  17.259  1.00  0.00     0.168 C 
HETATM   17  O   UNL     1     -35.042 -49.189  17.477  1.00  0.00    -0.391 OA
HETATM   18  C   UNL     1     -35.522 -49.898  16.324  1.00  0.00     0.173 C 
ENDBRANCH  13  14
ENDBRANCH  10  13
ENDBRANCH   4   7
BRANCH   1  19
HETATM   19  C   UNL     1     -44.607 -53.067  13.688  1.00  0.00     0.077 A 
HETATM   20  C   UNL     1     -45.729 -52.466  14.252  1.00  0.00     0.158 A 
HETATM   21  F   UNL     1     -45.760 -51.141  14.458  1.00  0.00    -0.202 F 
HETATM   22  C   UNL     1     -46.803 -53.258  14.618  1.00  0.00     0.132 A 
HETATM   23  N   UNL     1     -46.841 -54.601  14.446  1.00  0.00    -0.372 N 
HETATM   24  C   UNL     1     -45.751 -55.162  13.879  1.00  0.00     0.090 A 
ATOM     25  HN  UNL     1     -47.648 -55.157  14.729  1.00  0.00     0.164 HD
HETATM   26  C   UNL     1     -44.630 -54.445  13.481  1.00  0.00     0.050 A 
ENDBRANCH   1  19
TORSDOF 4
ENDMDL
MODEL 8
REMARK VINA RESULT:      -5.4      3.769      9.416
REMARK  4 active torsions:
REMARK  status: ('A' for Active; 'I' for Inactive)
REMARK    1  A    between atoms: C_8  and  N_9 
REMARK       I    between atoms: N_9  and  C_10 
REMARK       I    between atoms: C_10  and  N_12 
REMARK    2  A    between atoms: N_12  and  C_13 
REMARK    3  A    between atoms: N_16  and  C_17 
REMARK    4  A    between atoms: C_17  and  C_18 
ROOT
HETATM    1  N   UNL     1     -41.548 -43.757  11.976  1.00  0.00    -0.306 N 
HETATM    2  C   UNL     1     -41.050 -44.762  11.177  1.00  0.00     0.321 C 
HETATM    3  O   UNL     1     -40.436 -44.610  10.128  1.00  0.00    -0.247 OA
HETATM    4  N   UNL     1     -41.339 -46.012  11.677  1.00  0.00    -0.338 N 
HETATM    5  H   UNL     1     -42.244 -44.011  12.662  1.00  0.00     0.171 HD
HETATM    6  H   UNL     1     -41.552 -46.078  12.661  1.00  0.00     0.164 HD
ENDROOT
BRANCH   4   7
HETATM    7  C   UNL     1     -40.821 -47.202  11.000  1.00  0.00     0.089 C 
HETATM    8  C   UNL     1     -41.955 -48.178  10.688  1.00  0.00     0.055 C 
HETATM    9  C   UNL     1     -42.369 -48.986  11.922  1.00  0.00     0.274 C 
HETATM   10  N   UNL     1     -41.247 -49.687  12.579  1.00  0.00     0.089 N 
HETATM   11  C   UNL     1     -40.221 -48.706  12.963  1.00  0.00     0.274 C 
HETATM   12  C   UNL     1     -39.691 -47.877  11.794  1.00  0.00     0.055 C 
BRANCH  10  13
HETATM   13  C   UNL     1     -40.754 -50.785  11.728  1.00  0.00     0.279 C 
BRANCH  13  14
HETATM   14  C   UNL     1     -40.935 -52.212  12.250  1.00  0.00     0.040 C 
HETATM   15  C   UNL     1     -42.403 -52.621  12.261  1.00  0.00     0.035 C 
HETATM   16  C   UNL     1     -42.541 -53.530  13.466  1.00  0.00     0.168 C 
HETATM   17  O   UNL     1     -41.251 -53.615  14.083  1.00  0.00    -0.391 OA
HETATM   18  C   UNL     1     -40.522 -52.442  13.688  1.00  0.00     0.173 C 
ENDBRANCH  13  14
ENDBRANCH  10  13
ENDBRANCH   4   7
BRANCH   1  19
HETATM   19  C   UNL     1     -41.361 -42.370  11.759  1.00  0.00     0.077 A 
HETATM   20  C   UNL     1     -40.283 -41.742  12.376  1.00  0.00     0.158 A 
HETATM   21  F   UNL     1     -39.440 -42.442  13.148  1.00  0.00    -0.202 F 
HETATM   22  C   UNL     1     -40.107 -40.381  12.200  1.00  0.00     0.132 A 
HETATM   23  N   UNL     1     -40.920 -39.610  11.440  1.00  0.00    -0.372 N 
HETATM   24  C   UNL     1     -41.949 -40.241  10.833  1.00  0.00     0.090 A 
ATOM     25  HN  UNL     1     -40.763 -38.607  11.331  1.00  0.00     0.164 HD
HETATM   26  C   UNL     1     -42.201 -41.601  10.954  1.00  0.00     0.050 A 
ENDBRANCH   1  19
TORSDOF 4
ENDMDL
MODEL 9
REMARK VINA RESULT:      -5.3      3.243      9.102
REMARK  4 active torsions:
REMARK  status: ('A' for Active; 'I' for Inactive)
REMARK    1  A    between atoms: C_8  and  N_9 
REMARK       I    between atoms: N_9  and  C_10 
REMARK       I    between atoms: C_10  and  N_12 
REMARK    2  A    between atoms: N_12  and  C_13 
REMARK    3  A    between atoms: N_16  and  C_17 
REMARK    4  A    between atoms: C_17  and  C_18 
ROOT
HETATM    1  N   UNL     1     -41.298 -46.288  11.604  1.00  0.00    -0.306 N 
HETATM    2  C   UNL     1     -41.043 -47.138  12.657  1.00  0.00     0.321 C 
HETATM    3  O   UNL     1     -40.821 -46.804  13.815  1.00  0.00    -0.247 OA
HETATM    4  N   UNL     1     -41.038 -48.458  12.267  1.00  0.00    -0.338 N 
HETATM    5  H   UNL     1     -41.210 -46.664  10.672  1.00  0.00     0.171 HD
HETATM    6  H   UNL     1     -41.524 -48.689  11.413  1.00  0.00     0.164 HD
ENDROOT
BRANCH   4   7
HETATM    7  C   UNL     1     -40.861 -49.510  13.268  1.00  0.00     0.089 C 
HETATM    8  C   UNL     1     -40.236 -50.754  12.636  1.00  0.00     0.055 C 
HETATM    9  C   UNL     1     -41.267 -51.580  11.861  1.00  0.00     0.274 C 
HETATM   10  N   UNL     1     -42.457 -51.946  12.657  1.00  0.00     0.089 N 
HETATM   11  C   UNL     1     -43.097 -50.722  13.162  1.00  0.00     0.274 C 
HETATM   12  C   UNL     1     -42.170 -49.842  14.001  1.00  0.00     0.055 C 
BRANCH  10  13
HETATM   13  C   UNL     1     -42.100 -52.924  13.701  1.00  0.00     0.279 C 
BRANCH  13  14
HETATM   14  C   UNL     1     -42.937 -54.203  13.778  1.00  0.00     0.040 C 
HETATM   15  C   UNL     1     -44.163 -54.124  12.877  1.00  0.00     0.035 C 
HETATM   16  C   UNL     1     -45.233 -54.906  13.614  1.00  0.00     0.168 C 
HETATM   17  O   UNL     1     -44.649 -55.377  14.833  1.00  0.00    -0.391 OA
HETATM   18  C   UNL     1     -43.543 -54.510  15.130  1.00  0.00     0.173 C 
ENDBRANCH  13  14
ENDBRANCH  10  13
ENDBRANCH   4   7
BRANCH   1  19
HETATM   19  C   UNL     1     -41.428 -44.880  11.701  1.00  0.00     0.077 A 
HETATM   20  C   UNL     1     -40.340 -44.089  11.344  1.00  0.00     0.158 A 
HETATM   21  F   UNL     1     -39.204 -44.651  10.908  1.00  0.00    -0.202 F 
HETATM   22  C   UNL     1     -40.441 -42.714  11.465  1.00  0.00     0.132 A 
HETATM   23  N   UNL     1     -41.553 -42.077  11.901  1.00  0.00    -0.372 N 
HETATM   24  C   UNL     1     -42.604 -42.861  12.224  1.00  0.00     0.090 A 
ATOM     25  HN  UNL     1     -41.594 -41.060  11.981  1.00  0.00     0.164 HD
HETATM   26  C   UNL     1     -42.592 -44.246  12.134  1.00  0.00     0.050 A 
ENDBRANCH   1  19
TORSDOF 4
ENDMDL
