MODEL 1
REMARK VINA RESULT:      -6.0      0.000      0.000
REMARK  2 active torsions:
REMARK  status: ('A' for Active; 'I' for Inactive)
REMARK       I    between atoms: N_1  and  C_2 
REMARK       I    between atoms: C_2  and  N_4 
REMARK    1  A    between atoms: N_4  and  C_5 
REMARK    2  A    between atoms: N_9  and  C_12 
ROOT
HETATM    1  C   UNL     1     -41.998 -52.612  12.132  1.00  0.00     0.701 A 
HETATM    2  N   UNL     1     -41.540 -53.503  13.066  1.00  0.00    -0.185 N 
ATOM      3  HN  UNL     1     -40.576 -53.708  13.327  1.00  0.00     0.185 HD
HETATM    4  C   UNL     1     -42.647 -54.031  13.545  1.00  0.00     0.218 A 
HETATM    5  N   UNL     1     -43.722 -53.451  12.945  1.00  0.00    -0.268 N 
HETATM    6  N   UNL     1     -43.324 -52.523  12.070  1.00  0.00    -0.128 N 
ATOM      7  HN  UNL     1     -43.894 -51.901  11.498  1.00  0.00     0.206 HD
ENDROOT
BRANCH   1   8
HETATM    8  N   UNL     1     -41.097 -51.906  11.391  1.00  0.00    -0.145 N 
HETATM    9  C   UNL     1     -41.043 -50.544  11.350  1.00  0.00     0.310 C 
HETATM   10  N   UNL     1     -40.004 -50.090  10.589  1.00  0.00    -0.253 NA
HETATM   11  O   UNL     1     -41.788 -49.726  11.871  1.00  0.00    -0.254 OA
HETATM   12  H   UNL     1     -39.930 -49.080  10.638  1.00  0.00     0.128 HD
HETATM   13  H   UNL     1     -39.122 -50.568  10.715  1.00  0.00     0.128 HD
HETATM   14  H   UNL     1     -40.636 -52.439  10.675  1.00  0.00     0.188 HD
ENDBRANCH   1   8
BRANCH   5  15
HETATM   15  C   UNL     1     -45.133 -53.744  13.156  1.00  0.00     0.109 C 
HETATM   16  C   UNL     1     -46.094 -52.710  12.533  1.00  0.00     0.027 C 
HETATM   17  C   UNL     1     -46.226 -51.410  13.335  1.00  0.00     0.002 C 
HETATM   18  C   UNL     1     -46.452 -51.645  14.825  1.00  0.00     0.000 C 
HETATM   19  C   UNL     1     -45.469 -52.646  15.425  1.00  0.00     0.002 C 
HETATM   20  C   UNL     1     -45.454 -53.955  14.641  1.00  0.00     0.027 C 
ENDBRANCH   5  15
TORSDOF 2
ENDMDL
MODEL 2
REMARK VINA RESULT:      -5.9      2.057      2.632
REMARK  2 active torsions:
REMARK  status: ('A' for Active; 'I' for Inactive)
REMARK       I    between atoms: N_1  and  C_2 
REMARK       I    between atoms: C_2  and  N_4 
REMARK    1  A    between atoms: N_4  and  C_5 
REMARK    2  A    between atoms: N_9  and  C_12 
ROOT
HETATM    1  C   UNL     1     -42.031 -53.362  12.731  1.00  0.00     0.701 A 
HETATM    2  N   UNL     1     -42.067 -52.019  12.998  1.00  0.00    -0.185 N 
ATOM      3  HN  UNL     1     -41.285 -51.376  13.121  1.00  0.00     0.185 HD
HETATM    4  C   UNL     1     -43.356 -51.760  13.058  1.00  0.00     0.218 A 
HETATM    5  N   UNL     1     -44.059 -52.896  12.802  1.00  0.00    -0.268 N 
HETATM    6  N   UNL     1     -43.228 -53.913  12.558  1.00  0.00    -0.128 N 
ATOM      7  HN  UNL     1     -43.456 -54.874  12.302  1.00  0.00     0.206 HD
ENDROOT
BRANCH   1   8
HETATM    8  N   UNL     1     -40.823 -53.990  12.649  1.00  0.00    -0.145 N 
HETATM    9  C   UNL     1     -39.971 -54.145  13.702  1.00  0.00     0.310 C 
HETATM   10  N   UNL     1     -38.863 -54.871  13.368  1.00  0.00    -0.253 NA
HETATM   11  O   UNL     1     -40.067 -53.716  14.843  1.00  0.00    -0.254 OA
HETATM   12  H   UNL     1     -38.283 -55.046  14.182  1.00  0.00     0.128 HD
HETATM   13  H   UNL     1     -39.027 -55.692  12.804  1.00  0.00     0.128 HD
HETATM   14  H   UNL     1     -40.477 -54.109  11.714  1.00  0.00     0.188 HD
ENDBRANCH   1   8
BRANCH   5  15
HETATM   15  C   UNL     1     -45.505 -53.072  12.784  1.00  0.00     0.109 C 
HETATM   16  C   UNL     1     -46.303 -51.772  13.018  1.00  0.00     0.027 C 
HETATM   17  C   UNL     1     -46.359 -51.323  14.483  1.00  0.00     0.002 C 
HETATM   18  C   UNL     1     -46.719 -52.452  15.443  1.00  0.00     0.000 C 
HETATM   19  C   UNL     1     -45.895 -53.715  15.213  1.00  0.00     0.002 C 
HETATM   20  C   UNL     1     -45.957 -54.168  13.757  1.00  0.00     0.027 C 
ENDBRANCH   5  15
TORSDOF 2
ENDMDL
MODEL 3
REMARK VINA RESULT:      -5.8      5.961      7.896
REMARK  2 active torsions:
REMARK  status: ('A' for Active; 'I' for Inactive)
REMARK       I    between atoms: N_1  and  C_2 
REMARK       I    between atoms: C_2  and  N_4 
REMARK    1  A    between atoms: N_4  and  C_5 
REMARK    2  A    between atoms: N_9  and  C_12 
ROOT
HETATM    1  C   UNL     1     -43.652 -47.451  10.147  1.00  0.00     0.701 A 
HETATM    2  N   UNL     1     -42.545 -48.229   9.940  1.00  0.00    -0.185 N 
ATOM      3  HN  UNL     1     -42.436 -49.021   9.306  1.00  0.00     0.185 HD
HETATM    4  C   UNL     1     -41.656 -47.709  10.759  1.00  0.00     0.218 A 
HETATM    5  N   UNL     1     -42.201 -46.640  11.401  1.00  0.00    -0.268 N 
HETATM    6  N   UNL     1     -43.459 -46.445  10.994  1.00  0.00    -0.128 N 
ATOM      7  HN  UNL     1     -44.109 -45.707  11.267  1.00  0.00     0.206 HD
ENDROOT
BRANCH   1   8
HETATM    8  N   UNL     1     -44.805 -47.746   9.480  1.00  0.00    -0.145 N 
HETATM    9  C   UNL     1     -44.855 -48.098   8.163  1.00  0.00     0.310 C 
HETATM   10  N   UNL     1     -46.122 -48.412   7.760  1.00  0.00    -0.253 NA
HETATM   11  O   UNL     1     -43.951 -48.144   7.341  1.00  0.00    -0.254 OA
HETATM   12  H   UNL     1     -46.127 -48.751   6.804  1.00  0.00     0.128 HD
HETATM   13  H   UNL     1     -46.658 -48.986   8.395  1.00  0.00     0.128 HD
HETATM   14  H   UNL     1     -45.644 -47.443   9.941  1.00  0.00     0.188 HD
ENDBRANCH   1   8
BRANCH   5  15
HETATM   15  C   UNL     1     -41.583 -45.785  12.404  1.00  0.00     0.109 C 
HETATM   16  C   UNL     1     -42.334 -44.462  12.658  1.00  0.00     0.027 C 
HETATM   17  C   UNL     1     -42.107 -43.393  11.583  1.00  0.00     0.002 C 
HETATM   18  C   UNL     1     -40.637 -43.210  11.220  1.00  0.00     0.000 C 
HETATM   19  C   UNL     1     -39.924 -44.529  10.942  1.00  0.00     0.002 C 
HETATM   20  C   UNL     1     -40.105 -45.517  12.091  1.00  0.00     0.027 C 
ENDBRANCH   5  15
TORSDOF 2
ENDMDL
MODEL 4
REMARK VINA RESULT:      -5.4      6.089      7.832
REMARK  2 active torsions:
REMARK  status: ('A' for Active; 'I' for Inactive)
REMARK       I    between atoms: N_1  and  C_2 
REMARK       I    between atoms: C_2  and  N_4 
REMARK    1  A    between atoms: N_4  and  C_5 
REMARK    2  A    between atoms: N_9  and  C_12 
ROOT
HETATM    1  C   UNL     1     -43.794 -47.400  10.055  1.00  0.00     0.701 A 
HETATM    2  N   UNL     1     -42.731 -48.263  10.098  1.00  0.00    -0.185 N 
ATOM      3  HN  UNL     1     -42.715 -49.260   9.882  1.00  0.00     0.185 HD
HETATM    4  C   UNL     1     -41.736 -47.494  10.486  1.00  0.00     0.218 A 
HETATM    5  N   UNL     1     -42.182 -46.217  10.634  1.00  0.00    -0.268 N 
HETATM    6  N   UNL     1     -43.480 -46.138  10.329  1.00  0.00    -0.128 N 
ATOM      7  HN  UNL     1     -44.081 -45.314  10.311  1.00  0.00     0.206 HD
ENDROOT
BRANCH   1   8
HETATM    8  N   UNL     1     -45.028 -47.883   9.729  1.00  0.00    -0.145 N 
HETATM    9  C   UNL     1     -45.986 -47.155   9.087  1.00  0.00     0.310 C 
HETATM   10  N   UNL     1     -47.102 -47.895   8.816  1.00  0.00    -0.253 NA
HETATM   11  O   UNL     1     -45.971 -45.976   8.761  1.00  0.00    -0.254 OA
HETATM   12  H   UNL     1     -47.767 -47.362   8.267  1.00  0.00     0.128 HD
HETATM   13  H   UNL     1     -46.939 -48.827   8.462  1.00  0.00     0.128 HD
HETATM   14  H   UNL     1     -45.289 -48.723  10.213  1.00  0.00     0.188 HD
ENDBRANCH   1   8
BRANCH   5  15
HETATM   15  C   UNL     1     -41.427 -45.048  11.066  1.00  0.00     0.109 C 
HETATM   16  C   UNL     1     -40.116 -45.380  11.807  1.00  0.00     0.027 C 
HETATM   17  C   UNL     1     -40.309 -45.814  13.264  1.00  0.00     0.002 C 
HETATM   18  C   UNL     1     -41.245 -44.897  14.044  1.00  0.00     0.000 C 
HETATM   19  C   UNL     1     -42.548 -44.610  13.306  1.00  0.00     0.002 C 
HETATM   20  C   UNL     1     -42.290 -44.088  11.895  1.00  0.00     0.027 C 
ENDBRANCH   5  15
TORSDOF 2
ENDMDL
MODEL 5
REMARK VINA RESULT:      -5.4      2.769      6.019
REMARK  2 active torsions:
REMARK  status: ('A' for Active; 'I' for Inactive)
REMARK       I    between atoms: N_1  and  C_2 
REMARK       I    between atoms: C_2  and  N_4 
REMARK    1  A    between atoms: N_4  and  C_5 
REMARK    2  A    between atoms: N_9  and  C_12 
ROOT
HETATM    1  C   UNL     1     -41.648 -52.240  12.133  1.00  0.00     0.701 A 
HETATM    2  N   UNL     1     -41.090 -52.741  13.279  1.00  0.00    -0.185 N 
ATOM      3  HN  UNL     1     -41.485 -53.415  13.934  1.00  0.00     0.185 HD
HETATM    4  C   UNL     1     -39.920 -52.140  13.330  1.00  0.00     0.218 A 
HETATM    5  N   UNL     1     -39.773 -51.340  12.239  1.00  0.00    -0.268 N 
HETATM    6  N   UNL     1     -40.850 -51.422  11.453  1.00  0.00    -0.128 N 
ATOM      7  HN  UNL     1     -41.019 -50.969  10.555  1.00  0.00     0.206 HD
ENDROOT
BRANCH   1   8
HETATM    8  N   UNL     1     -42.912 -52.620  11.789  1.00  0.00    -0.145 N 
HETATM    9  C   UNL     1     -43.930 -52.778  12.683  1.00  0.00     0.310 C 
HETATM   10  N   UNL     1     -45.110 -53.094  12.072  1.00  0.00    -0.253 NA
HETATM   11  O   UNL     1     -43.907 -52.695  13.903  1.00  0.00    -0.254 OA
HETATM   12  H   UNL     1     -45.871 -53.126  12.742  1.00  0.00     0.128 HD
HETATM   13  H   UNL     1     -45.328 -52.570  11.236  1.00  0.00     0.128 HD
HETATM   14  H   UNL     1     -42.992 -53.026  10.875  1.00  0.00     0.188 HD
ENDBRANCH   1   8
BRANCH   5  15
HETATM   15  C   UNL     1     -38.646 -50.480  11.902  1.00  0.00     0.109 C 
HETATM   16  C   UNL     1     -37.392 -50.714  12.769  1.00  0.00     0.027 C 
HETATM   17  C   UNL     1     -37.468 -50.092  14.168  1.00  0.00     0.002 C 
HETATM   18  C   UNL     1     -37.952 -48.646  14.156  1.00  0.00     0.000 C 
HETATM   19  C   UNL     1     -39.212 -48.447  13.320  1.00  0.00     0.002 C 
HETATM   20  C   UNL     1     -39.041 -48.998  11.907  1.00  0.00     0.027 C 
ENDBRANCH   5  15
TORSDOF 2
ENDMDL
MODEL 6
REMARK VINA RESULT:      -5.4      5.333      7.226
REMARK  2 active torsions:
REMARK  status: ('A' for Active; 'I' for Inactive)
REMARK       I    between atoms: N_1  and  C_2 
REMARK       I    between atoms: C_2  and  N_4 
REMARK    1  A    between atoms: N_4  and  C_5 
REMARK    2  A    between atoms: N_9  and  C_12 
ROOT
HETATM    1  C   UNL     1     -40.645 -48.865  10.887  1.00  0.00     0.701 A 
HETATM    2  N   UNL     1     -42.007 -49.002  10.909  1.00  0.00    -0.185 N 
ATOM      3  HN  UNL     1     -42.557 -49.849  11.054  1.00  0.00     0.185 HD
HETATM    4  C   UNL     1     -42.436 -47.776  10.698  1.00  0.00     0.218 A 
HETATM    5  N   UNL     1     -41.371 -46.936  10.590  1.00  0.00    -0.268 N 
HETATM    6  N   UNL     1     -40.228 -47.611  10.743  1.00  0.00    -0.128 N 
ATOM      7  HN  UNL     1     -39.273 -47.253  10.748  1.00  0.00     0.206 HD
ENDROOT
BRANCH   1   8
HETATM    8  N   UNL     1     -39.864 -49.974  11.028  1.00  0.00    -0.145 N 
HETATM    9  C   UNL     1     -38.704 -50.004  11.744  1.00  0.00     0.310 C 
HETATM   10  N   UNL     1     -38.154 -51.254  11.786  1.00  0.00    -0.253 NA
HETATM   11  O   UNL     1     -38.120 -49.088  12.306  1.00  0.00    -0.254 OA
HETATM   12  H   UNL     1     -37.339 -51.273  12.390  1.00  0.00     0.128 HD
HETATM   13  H   UNL     1     -38.798 -52.014  11.950  1.00  0.00     0.128 HD
HETATM   14  H   UNL     1     -40.053 -50.705  10.366  1.00  0.00     0.188 HD
ENDBRANCH   1   8
BRANCH   5  15
HETATM   15  C   UNL     1     -41.381 -45.502  10.336  1.00  0.00     0.109 C 
HETATM   16  C   UNL     1     -40.000 -44.826  10.467  1.00  0.00     0.027 C 
HETATM   17  C   UNL     1     -39.552 -44.584  11.912  1.00  0.00     0.002 C 
HETATM   18  C   UNL     1     -40.636 -43.949  12.778  1.00  0.00     0.000 C 
HETATM   19  C   UNL     1     -41.983 -44.654  12.656  1.00  0.00     0.002 C 
HETATM   20  C   UNL     1     -42.422 -44.778  11.200  1.00  0.00     0.027 C 
ENDBRANCH   5  15
TORSDOF 2
ENDMDL
MODEL 7
REMARK VINA RESULT:      -5.3      1.526      2.032
REMARK  2 active torsions:
REMARK  status: ('A' for Active; 'I' for Inactive)
REMARK       I    between atoms: N_1  and  C_2 
REMARK       I    between atoms: C_2  and  N_4 
REMARK    1  A    between atoms: N_4  and  C_5 
REMARK    2  A    between atoms: N_9  and  C_12 
ROOT
HETATM    1  C   UNL     1     -42.238 -51.620  12.385  1.00  0.00     0.701 A 
HETATM    2  N   UNL     1     -42.825 -52.698  11.779  1.00  0.00    -0.185 N 
ATOM      3  HN  UNL     1     -42.701 -53.034  10.823  1.00  0.00     0.185 HD
HETATM    4  C   UNL     1     -43.587 -53.198  12.728  1.00  0.00     0.218 A 
HETATM    5  N   UNL     1     -43.433 -52.467  13.865  1.00  0.00    -0.268 N 
HETATM    6  N   UNL     1     -42.552 -51.482  13.670  1.00  0.00    -0.128 N 
ATOM      7  HN  UNL     1     -42.205 -50.795  14.340  1.00  0.00     0.206 HD
ENDROOT
BRANCH   1   8
HETATM    8  N   UNL     1     -41.402 -50.824  11.658  1.00  0.00    -0.145 N 
HETATM    9  C   UNL     1     -40.042 -50.858  11.754  1.00  0.00     0.310 C 
HETATM   10  N   UNL     1     -39.440 -50.012  10.867  1.00  0.00    -0.253 NA
HETATM   11  O   UNL     1     -39.337 -51.508  12.514  1.00  0.00    -0.254 OA
HETATM   12  H   UNL     1     -38.431 -50.112  10.895  1.00  0.00     0.128 HD
HETATM   13  H   UNL     1     -39.821 -50.009   9.931  1.00  0.00     0.128 HD
HETATM   14  H   UNL     1     -41.846 -50.030  11.233  1.00  0.00     0.188 HD
ENDBRANCH   1   8
BRANCH   5  15
HETATM   15  C   UNL     1     -44.097 -52.652  15.148  1.00  0.00     0.109 C 
HETATM   16  C   UNL     1     -44.904 -53.962  15.259  1.00  0.00     0.027 C 
HETATM   17  C   UNL     1     -46.259 -53.930  14.544  1.00  0.00     0.002 C 
HETATM   18  C   UNL     1     -47.070 -52.676  14.853  1.00  0.00     0.000 C 
HETATM   19  C   UNL     1     -46.260 -51.392  14.704  1.00  0.00     0.002 C 
HETATM   20  C   UNL     1     -44.970 -51.446  15.517  1.00  0.00     0.027 C 
ENDBRANCH   5  15
TORSDOF 2
ENDMDL
MODEL 8
REMARK VINA RESULT:      -5.3      2.585      4.263
REMARK  2 active torsions:
REMARK  status: ('A' for Active; 'I' for Inactive)
REMARK       I    between atoms: N_1  and  C_2 
REMARK       I    between atoms: C_2  and  N_4 
REMARK    1  A    between atoms: N_4  and  C_5 
REMARK    2  A    between atoms: N_9  and  C_12 
ROOT
HETATM    1  C   UNL     1     -41.343 -48.946  10.908  1.00  0.00     0.701 A 
HETATM    2  N   UNL     1     -40.364 -49.871  10.661  1.00  0.00    -0.185 N 
ATOM      3  HN  UNL     1     -39.678 -49.882   9.907  1.00  0.00     0.185 HD
HETATM    4  C   UNL     1     -40.524 -50.743  11.634  1.00  0.00     0.218 A 
HETATM    5  N   UNL     1     -41.535 -50.334  12.448  1.00  0.00    -0.268 N 
HETATM    6  N   UNL     1     -42.040 -49.175  12.017  1.00  0.00    -0.128 N 
ATOM      7  HN  UNL     1     -42.778 -48.608  12.435  1.00  0.00     0.206 HD
ENDROOT
BRANCH   1   8
HETATM    8  N   UNL     1     -41.501 -47.901  10.046  1.00  0.00    -0.145 N 
HETATM    9  C   UNL     1     -42.706 -47.338   9.743  1.00  0.00     0.310 C 
HETATM   10  N   UNL     1     -42.580 -46.263   8.910  1.00  0.00    -0.253 NA
HETATM   11  O   UNL     1     -43.827 -47.677  10.095  1.00  0.00    -0.254 OA
HETATM   12  H   UNL     1     -43.475 -45.808   8.763  1.00  0.00     0.128 HD
HETATM   13  H   UNL     1     -41.830 -45.621   9.128  1.00  0.00     0.128 HD
HETATM   14  H   UNL     1     -40.714 -47.730   9.447  1.00  0.00     0.188 HD
ENDBRANCH   1   8
BRANCH   5  15
HETATM   15  C   UNL     1     -42.061 -51.003  13.630  1.00  0.00     0.109 C 
HETATM   16  C   UNL     1     -41.139 -52.103  14.197  1.00  0.00     0.027 C 
HETATM   17  C   UNL     1     -41.177 -53.421  13.415  1.00  0.00     0.002 C 
HETATM   18  C   UNL     1     -42.593 -53.897  13.110  1.00  0.00     0.000 C 
HETATM   19  C   UNL     1     -43.475 -52.801  12.520  1.00  0.00     0.002 C 
HETATM   20  C   UNL     1     -43.475 -51.550  13.393  1.00  0.00     0.027 C 
ENDBRANCH   5  15
TORSDOF 2
ENDMDL
MODEL 9
REMARK VINA RESULT:      -5.2      4.476      6.302
REMARK  2 active torsions:
REMARK  status: ('A' for Active; 'I' for Inactive)
REMARK       I    between atoms: N_1  and  C_2 
REMARK       I    between atoms: C_2  and  N_4 
REMARK    1  A    between atoms: N_4  and  C_5 
REMARK    2  A    between atoms: N_9  and  C_12 
ROOT
HETATM    1  C   UNL     1     -41.472 -48.109  10.694  1.00  0.00     0.701 A 
HETATM    2  N   UNL     1     -42.393 -48.957  11.249  1.00  0.00    -0.185 N 
ATOM      3  HN  UNL     1     -43.410 -48.878  11.246  1.00  0.00     0.185 HD
HETATM    4  C   UNL     1     -41.647 -49.898  11.788  1.00  0.00     0.218 A 
HETATM    5  N   UNL     1     -40.336 -49.639  11.533  1.00  0.00    -0.268 N 
HETATM    6  N   UNL     1     -40.214 -48.523  10.808  1.00  0.00    -0.128 N 
ATOM      7  HN  UNL     1     -39.366 -48.095  10.435  1.00  0.00     0.206 HD
ENDROOT
BRANCH   1   8
HETATM    8  N   UNL     1     -41.905 -46.970  10.079  1.00  0.00    -0.145 N 
HETATM    9  C   UNL     1     -42.990 -46.914   9.256  1.00  0.00     0.310 C 
HETATM   10  N   UNL     1     -43.250 -45.642   8.829  1.00  0.00    -0.253 NA
HETATM   11  O   UNL     1     -43.708 -47.822   8.860  1.00  0.00    -0.254 OA
HETATM   12  H   UNL     1     -44.106 -45.607   8.287  1.00  0.00     0.128 HD
HETATM   13  H   UNL     1     -43.185 -44.919   9.531  1.00  0.00     0.128 HD
HETATM   14  H   UNL     1     -41.232 -46.225  10.060  1.00  0.00     0.188 HD
ENDBRANCH   1   8
BRANCH   5  15
HETATM   15  C   UNL     1     -39.171 -50.405  11.955  1.00  0.00     0.109 C 
HETATM   16  C   UNL     1     -39.409 -51.278  13.204  1.00  0.00     0.027 C 
HETATM   17  C   UNL     1     -39.399 -50.503  14.527  1.00  0.00     0.002 C 
HETATM   18  C   UNL     1     -38.216 -49.550  14.654  1.00  0.00     0.000 C 
HETATM   19  C   UNL     1     -38.022 -48.674  13.421  1.00  0.00     0.002 C 
HETATM   20  C   UNL     1     -37.940 -49.509  12.146  1.00  0.00     0.027 C 
ENDBRANCH   5  15
TORSDOF 2
ENDMDL
