MODEL 1
REMARK VINA RESULT:      -7.0      0.000      0.000
REMARK  6 active torsions:
REMARK  status: ('A' for Active; 'I' for Inactive)
REMARK    1  A    between atoms: C_2  and  N_4 
REMARK    2  A    between atoms: N_3  and  C_15 
REMARK    3  A    between atoms: C_9  and  C_10 
REMARK    4  A    between atoms: C_15  and  C_16 
REMARK    5  A    between atoms: C_16  and  O_24 
REMARK    6  A    between atoms: C_18  and  O_27 
ROOT
HETATM    1  C   UNL     1     -40.755 -49.919  13.302  1.00  0.00     0.122 A 
HETATM    2  C   UNL     1     -39.956 -51.093  13.321  1.00  0.00     0.136 A 
HETATM    3  N   UNL     1     -41.483 -48.045  12.430  1.00  0.00    -0.324 N 
HETATM    4  C   UNL     1     -40.517 -48.999  12.289  1.00  0.00     0.140 A 
HETATM    5  N   UNL     1     -41.831 -49.494  14.070  1.00  0.00    -0.346 N 
ATOM      6  HN  UNL     1     -42.232 -49.963  14.882  1.00  0.00     0.167 HD
HETATM    7  C   UNL     1     -42.226 -48.361  13.533  1.00  0.00     0.185 A 
HETATM    8  N   UNL     1     -38.964 -51.158  12.381  1.00  0.00    -0.337 N 
ATOM      9  HN  UNL     1     -38.333 -51.959  12.361  1.00  0.00     0.168 HD
HETATM   10  N   UNL     1     -39.562 -49.052  11.348  1.00  0.00    -0.336 N 
ATOM     11  HN  UNL     1     -39.419 -48.343  10.629  1.00  0.00     0.168 HD
HETATM   12  C   UNL     1     -38.822 -50.163  11.479  1.00  0.00     0.183 A 
ENDROOT
BRANCH   2  13
HETATM   13  N   UNL     1     -40.118 -52.173  14.184  1.00  0.00    -0.356 N 
HETATM   14  C   UNL     1     -41.449 -52.524  14.733  1.00  0.00     0.116 C 
HETATM   15  C   UNL     1     -41.206 -53.271  16.076  1.00  0.00     0.193 C 
HETATM   16  O   UNL     1     -40.393 -54.440  15.888  1.00  0.00    -0.387 OA
HETATM   17  C   UNL     1     -39.088 -54.055  15.430  1.00  0.00     0.187 C 
HETATM   18  C   UNL     1     -39.138 -53.271  14.109  1.00  0.00     0.151 C 
BRANCH  14  19
HETATM   19  C   UNL     1     -42.293 -53.393  13.753  1.00  0.00     0.039 C 
HETATM   20  C   UNL     1     -43.046 -52.635  12.635  1.00  0.00     0.124 C 
HETATM   21  C   UNL     1     -44.429 -53.276  12.500  1.00  0.00     0.032 C 
HETATM   22  C   UNL     1     -44.366 -54.530  13.353  1.00  0.00     0.003 C 
HETATM   23  C   UNL     1     -43.419 -54.144  14.477  1.00  0.00     0.009 C 
BRANCH  20  24
HETATM   24  O   UNL     1     -42.379 -52.761  11.383  1.00  0.00    -0.395 OA
HETATM   25  H   UNL     1     -42.694 -52.043  10.809  1.00  0.00     0.210 HD
ENDBRANCH  20  24
ENDBRANCH  14  19
ENDBRANCH   2  13
BRANCH   3  26
HETATM   26  C   UNL     1     -41.685 -46.893  11.575  1.00  0.00     0.171 C 
BRANCH  26  27
HETATM   27  C   UNL     1     -42.512 -47.176  10.313  1.00  0.00     0.097 C 
HETATM   28  C   UNL     1     -42.849 -45.980   9.440  1.00  0.00     0.068 C 
HETATM   29  C   UNL     1     -44.153 -46.382   8.771  1.00  0.00     0.170 C 
HETATM   30  O   UNL     1     -44.785 -47.366   9.596  1.00  0.00    -0.388 OA
HETATM   31  C   UNL     1     -43.911 -47.671  10.694  1.00  0.00     0.207 C 
BRANCH  27  32
HETATM   32  O   UNL     1     -41.866 -48.191   9.528  1.00  0.00    -0.386 OA
HETATM   33  H   UNL     1     -41.422 -47.768   8.772  1.00  0.00     0.210 HD
ENDBRANCH  27  32
ENDBRANCH  26  27
ENDBRANCH   3  26
TORSDOF 6
ENDMDL
MODEL 2
REMARK VINA RESULT:      -7.0      2.126      2.738
REMARK  6 active torsions:
REMARK  status: ('A' for Active; 'I' for Inactive)
REMARK    1  A    between atoms: C_2  and  N_4 
REMARK    2  A    between atoms: N_3  and  C_15 
REMARK    3  A    between atoms: C_9  and  C_10 
REMARK    4  A    between atoms: C_15  and  C_16 
REMARK    5  A    between atoms: C_16  and  O_24 
REMARK    6  A    between atoms: C_18  and  O_27 
ROOT
HETATM    1  C   UNL     1     -41.338 -51.425  13.782  1.00  0.00     0.122 A 
HETATM    2  C   UNL     1     -41.907 -52.725  13.725  1.00  0.00     0.136 A 
HETATM    3  N   UNL     1     -40.495 -49.603  12.902  1.00  0.00    -0.324 N 
HETATM    4  C   UNL     1     -40.870 -50.879  12.593  1.00  0.00     0.140 A 
HETATM    5  N   UNL     1     -41.201 -50.495  14.804  1.00  0.00    -0.346 N 
ATOM      6  HN  UNL     1     -41.457 -50.614  15.784  1.00  0.00     0.167 HD
HETATM    7  C   UNL     1     -40.674 -49.427  14.246  1.00  0.00     0.185 A 
HETATM    8  N   UNL     1     -41.858 -53.348  12.509  1.00  0.00    -0.337 N 
ATOM      9  HN  UNL     1     -42.218 -54.296  12.407  1.00  0.00     0.168 HD
HETATM   10  N   UNL     1     -40.829 -51.466  11.388  1.00  0.00    -0.336 N 
ATOM     11  HN  UNL     1     -40.464 -51.026  10.543  1.00  0.00     0.168 HD
HETATM   12  C   UNL     1     -41.331 -52.708  11.442  1.00  0.00     0.183 A 
ENDROOT
BRANCH   2  13
HETATM   13  N   UNL     1     -42.525 -53.389  14.782  1.00  0.00    -0.356 N 
HETATM   14  C   UNL     1     -43.595 -52.739  15.575  1.00  0.00     0.116 C 
HETATM   15  C   UNL     1     -43.592 -53.410  16.979  1.00  0.00     0.193 C 
HETATM   16  O   UNL     1     -43.799 -54.829  16.884  1.00  0.00    -0.387 OA
HETATM   17  C   UNL     1     -42.704 -55.431  16.178  1.00  0.00     0.187 C 
HETATM   18  C   UNL     1     -42.538 -54.862  14.760  1.00  0.00     0.151 C 
BRANCH  14  19
HETATM   19  C   UNL     1     -44.995 -52.853  14.902  1.00  0.00     0.039 C 
HETATM   20  C   UNL     1     -45.106 -52.330  13.451  1.00  0.00     0.124 C 
HETATM   21  C   UNL     1     -46.437 -51.583  13.335  1.00  0.00     0.032 C 
HETATM   22  C   UNL     1     -47.175 -51.893  14.624  1.00  0.00     0.003 C 
HETATM   23  C   UNL     1     -46.058 -52.031  15.644  1.00  0.00     0.009 C 
BRANCH  20  24
HETATM   24  O   UNL     1     -45.120 -53.402  12.513  1.00  0.00    -0.395 OA
HETATM   25  H   UNL     1     -45.455 -54.190  12.972  1.00  0.00     0.210 HD
ENDBRANCH  20  24
ENDBRANCH  14  19
ENDBRANCH   2  13
BRANCH   3  26
HETATM   26  C   UNL     1     -39.983 -48.610  11.980  1.00  0.00     0.171 C 
BRANCH  26  27
HETATM   27  C   UNL     1     -41.044 -47.999  11.052  1.00  0.00     0.097 C 
HETATM   28  C   UNL     1     -40.831 -46.554  10.638  1.00  0.00     0.068 C 
HETATM   29  C   UNL     1     -42.240 -46.043  10.390  1.00  0.00     0.170 C 
HETATM   30  O   UNL     1     -43.143 -46.859  11.143  1.00  0.00    -0.388 OA
HETATM   31  C   UNL     1     -42.392 -47.907  11.774  1.00  0.00     0.207 C 
BRANCH  27  32
HETATM   32  O   UNL     1     -41.204 -48.826   9.889  1.00  0.00    -0.386 OA
HETATM   33  H   UNL     1     -42.084 -48.662   9.506  1.00  0.00     0.210 HD
ENDBRANCH  27  32
ENDBRANCH  26  27
ENDBRANCH   3  26
TORSDOF 6
ENDMDL
MODEL 3
REMARK VINA RESULT:      -7.0      1.977      6.985
REMARK  6 active torsions:
REMARK  status: ('A' for Active; 'I' for Inactive)
REMARK    1  A    between atoms: C_2  and  N_4 
REMARK    2  A    between atoms: N_3  and  C_15 
REMARK    3  A    between atoms: C_9  and  C_10 
REMARK    4  A    between atoms: C_15  and  C_16 
REMARK    5  A    between atoms: C_16  and  O_24 
REMARK    6  A    between atoms: C_18  and  O_27 
ROOT
HETATM    1  C   UNL     1     -39.880 -48.459  12.565  1.00  0.00     0.122 A 
HETATM    2  C   UNL     1     -40.370 -47.181  12.944  1.00  0.00     0.136 A 
HETATM    3  N   UNL     1     -39.654 -50.627  12.788  1.00  0.00    -0.324 N 
HETATM    4  C   UNL     1     -40.110 -49.516  13.436  1.00  0.00     0.140 A 
HETATM    5  N   UNL     1     -39.251 -48.931  11.421  1.00  0.00    -0.346 N 
ATOM      6  HN  UNL     1     -38.957 -48.386  10.610  1.00  0.00     0.167 HD
HETATM    7  C   UNL     1     -39.112 -50.226  11.599  1.00  0.00     0.185 A 
HETATM    8  N   UNL     1     -40.947 -47.103  14.182  1.00  0.00    -0.337 N 
ATOM      9  HN  UNL     1     -41.289 -46.207  14.529  1.00  0.00     0.168 HD
HETATM   10  N   UNL     1     -40.689 -49.464  14.646  1.00  0.00    -0.336 N 
ATOM     11  HN  UNL     1     -40.825 -50.270  15.256  1.00  0.00     0.168 HD
HETATM   12  C   UNL     1     -41.065 -48.212  14.943  1.00  0.00     0.183 A 
ENDROOT
BRANCH   2  13
HETATM   13  N   UNL     1     -40.335 -46.031  12.160  1.00  0.00    -0.356 N 
HETATM   14  C   UNL     1     -40.739 -46.063  10.734  1.00  0.00     0.116 C 
HETATM   15  C   UNL     1     -39.998 -44.894  10.024  1.00  0.00     0.193 C 
HETATM   16  O   UNL     1     -40.310 -43.628  10.629  1.00  0.00    -0.387 OA
HETATM   17  C   UNL     1     -39.835 -43.608  11.983  1.00  0.00     0.187 C 
HETATM   18  C   UNL     1     -40.450 -44.728  12.837  1.00  0.00     0.151 C 
BRANCH  14  19
HETATM   19  C   UNL     1     -42.282 -45.946  10.545  1.00  0.00     0.039 C 
HETATM   20  C   UNL     1     -43.140 -47.058  11.190  1.00  0.00     0.124 C 
HETATM   21  C   UNL     1     -44.249 -47.413  10.197  1.00  0.00     0.032 C 
HETATM   22  C   UNL     1     -44.166 -46.349   9.118  1.00  0.00     0.003 C 
HETATM   23  C   UNL     1     -42.685 -46.017   9.065  1.00  0.00     0.009 C 
BRANCH  20  24
HETATM   24  O   UNL     1     -43.756 -46.606  12.392  1.00  0.00    -0.395 OA
HETATM   25  H   UNL     1     -43.612 -47.288  13.070  1.00  0.00     0.210 HD
ENDBRANCH  20  24
ENDBRANCH  14  19
ENDBRANCH   2  13
BRANCH   3  26
HETATM   26  C   UNL     1     -39.716 -51.991  13.271  1.00  0.00     0.171 C 
BRANCH  26  27
HETATM   27  C   UNL     1     -40.880 -52.815  12.700  1.00  0.00     0.097 C 
HETATM   28  C   UNL     1     -42.198 -52.086  12.510  1.00  0.00     0.068 C 
HETATM   29  C   UNL     1     -43.237 -53.186  12.646  1.00  0.00     0.170 C 
HETATM   30  O   UNL     1     -42.657 -54.246  13.412  1.00  0.00    -0.388 OA
HETATM   31  C   UNL     1     -41.287 -53.915  13.685  1.00  0.00     0.207 C 
BRANCH  27  32
HETATM   32  O   UNL     1     -40.477 -53.431  11.466  1.00  0.00    -0.386 OA
HETATM   33  H   UNL     1     -39.592 -53.820  11.584  1.00  0.00     0.210 HD
ENDBRANCH  27  32
ENDBRANCH  26  27
ENDBRANCH   3  26
TORSDOF 6
ENDMDL
MODEL 4
REMARK VINA RESULT:      -6.9      1.293      1.986
REMARK  6 active torsions:
REMARK  status: ('A' for Active; 'I' for Inactive)
REMARK    1  A    between atoms: C_2  and  N_4 
REMARK    2  A    between atoms: N_3  and  C_15 
REMARK    3  A    between atoms: C_9  and  C_10 
REMARK    4  A    between atoms: C_15  and  C_16 
REMARK    5  A    between atoms: C_16  and  O_24 
REMARK    6  A    between atoms: C_18  and  O_27 
ROOT
HETATM    1  C   UNL     1     -41.090 -50.306  12.819  1.00  0.00     0.122 A 
HETATM    2  C   UNL     1     -41.180 -50.957  14.079  1.00  0.00     0.136 A 
HETATM    3  N   UNL     1     -41.087 -48.554  11.503  1.00  0.00    -0.324 N 
HETATM    4  C   UNL     1     -41.360 -48.944  12.782  1.00  0.00     0.140 A 
HETATM    5  N   UNL     1     -40.699 -50.735  11.558  1.00  0.00    -0.346 N 
ATOM      6  HN  UNL     1     -40.442 -51.683  11.281  1.00  0.00     0.167 HD
HETATM    7  C   UNL     1     -40.731 -49.667  10.792  1.00  0.00     0.185 A 
HETATM    8  N   UNL     1     -41.613 -50.186  15.122  1.00  0.00    -0.337 N 
ATOM      9  HN  UNL     1     -41.732 -50.600  16.046  1.00  0.00     0.168 HD
HETATM   10  N   UNL     1     -41.768 -48.167  13.796  1.00  0.00    -0.336 N 
ATOM     11  HN  UNL     1     -41.966 -47.169  13.716  1.00  0.00     0.168 HD
HETATM   12  C   UNL     1     -41.882 -48.876  14.928  1.00  0.00     0.183 A 
ENDROOT
BRANCH   2  13
HETATM   13  N   UNL     1     -40.841 -52.283  14.335  1.00  0.00    -0.356 N 
HETATM   14  C   UNL     1     -41.819 -53.222  14.935  1.00  0.00     0.116 C 
HETATM   15  C   UNL     1     -41.001 -54.325  15.666  1.00  0.00     0.193 C 
HETATM   16  O   UNL     1     -40.109 -55.002  14.766  1.00  0.00    -0.387 OA
HETATM   17  C   UNL     1     -39.131 -54.078  14.266  1.00  0.00     0.187 C 
HETATM   18  C   UNL     1     -39.770 -52.892  13.527  1.00  0.00     0.151 C 
BRANCH  14  19
HETATM   19  C   UNL     1     -42.780 -53.844  13.879  1.00  0.00     0.039 C 
HETATM   20  C   UNL     1     -43.544 -52.850  12.974  1.00  0.00     0.124 C 
HETATM   21  C   UNL     1     -44.975 -53.374  12.827  1.00  0.00     0.032 C 
HETATM   22  C   UNL     1     -44.949 -54.765  13.432  1.00  0.00     0.003 C 
HETATM   23  C   UNL     1     -43.910 -54.649  14.535  1.00  0.00     0.009 C 
BRANCH  20  24
HETATM   24  O   UNL     1     -42.967 -52.782  11.675  1.00  0.00    -0.395 OA
HETATM   25  H   UNL     1     -42.913 -51.844  11.426  1.00  0.00     0.210 HD
ENDBRANCH  20  24
ENDBRANCH  14  19
ENDBRANCH   2  13
BRANCH   3  26
HETATM   26  C   UNL     1     -41.170 -47.207  10.978  1.00  0.00     0.171 C 
BRANCH  26  27
HETATM   27  C   UNL     1     -42.576 -46.789  10.521  1.00  0.00     0.097 C 
HETATM   28  C   UNL     1     -43.131 -47.500   9.301  1.00  0.00     0.068 C 
HETATM   29  C   UNL     1     -44.081 -46.480   8.694  1.00  0.00     0.170 C 
HETATM   30  O   UNL     1     -43.665 -45.181   9.127  1.00  0.00    -0.388 OA
HETATM   31  C   UNL     1     -42.568 -45.335  10.041  1.00  0.00     0.207 C 
BRANCH  27  32
HETATM   32  O   UNL     1     -43.496 -46.904  11.619  1.00  0.00    -0.386 OA
HETATM   33  H   UNL     1     -43.575 -47.842  11.865  1.00  0.00     0.210 HD
ENDBRANCH  27  32
ENDBRANCH  26  27
ENDBRANCH   3  26
TORSDOF 6
ENDMDL
MODEL 5
REMARK VINA RESULT:      -6.6      2.830      3.838
REMARK  6 active torsions:
REMARK  status: ('A' for Active; 'I' for Inactive)
REMARK    1  A    between atoms: C_2  and  N_4 
REMARK    2  A    between atoms: N_3  and  C_15 
REMARK    3  A    between atoms: C_9  and  C_10 
REMARK    4  A    between atoms: C_15  and  C_16 
REMARK    5  A    between atoms: C_16  and  O_24 
REMARK    6  A    between atoms: C_18  and  O_27 
ROOT
HETATM    1  C   UNL     1     -40.467 -47.614  12.520  1.00  0.00     0.122 A 
HETATM    2  C   UNL     1     -40.226 -48.839  11.842  1.00  0.00     0.136 A 
HETATM    3  N   UNL     1     -41.600 -45.788  12.945  1.00  0.00    -0.324 N 
HETATM    4  C   UNL     1     -41.511 -46.823  12.061  1.00  0.00     0.140 A 
HETATM    5  N   UNL     1     -39.906 -47.031  13.649  1.00  0.00    -0.346 N 
ATOM      6  HN  UNL     1     -39.123 -47.383  14.200  1.00  0.00     0.167 HD
HETATM    7  C   UNL     1     -40.594 -45.931  13.860  1.00  0.00     0.185 A 
HETATM    8  N   UNL     1     -41.000 -49.076  10.740  1.00  0.00    -0.337 N 
ATOM      9  HN  UNL     1     -40.856 -49.921  10.188  1.00  0.00     0.168 HD
HETATM   10  N   UNL     1     -42.294 -47.046  10.993  1.00  0.00    -0.336 N 
ATOM     11  HN  UNL     1     -43.044 -46.426  10.687  1.00  0.00     0.168 HD
HETATM   12  C   UNL     1     -41.957 -48.191  10.383  1.00  0.00     0.183 A 
ENDROOT
BRANCH   2  13
HETATM   13  N   UNL     1     -39.303 -49.810  12.221  1.00  0.00    -0.356 N 
HETATM   14  C   UNL     1     -39.603 -50.771  13.308  1.00  0.00     0.116 C 
HETATM   15  C   UNL     1     -38.240 -51.228  13.902  1.00  0.00     0.193 C 
HETATM   16  O   UNL     1     -37.400 -51.820  12.897  1.00  0.00    -0.387 OA
HETATM   17  C   UNL     1     -37.068 -50.838  11.904  1.00  0.00     0.187 C 
HETATM   18  C   UNL     1     -38.313 -50.250  11.222  1.00  0.00     0.151 C 
BRANCH  14  19
HETATM   19  C   UNL     1     -40.438 -51.992  12.817  1.00  0.00     0.039 C 
HETATM   20  C   UNL     1     -41.971 -51.894  12.995  1.00  0.00     0.124 C 
HETATM   21  C   UNL     1     -42.465 -53.265  13.463  1.00  0.00     0.032 C 
HETATM   22  C   UNL     1     -41.269 -54.186  13.311  1.00  0.00     0.003 C 
HETATM   23  C   UNL     1     -40.085 -53.274  13.584  1.00  0.00     0.009 C 
BRANCH  20  24
HETATM   24  O   UNL     1     -42.617 -51.590  11.763  1.00  0.00    -0.395 OA
HETATM   25  H   UNL     1     -43.097 -52.386  11.479  1.00  0.00     0.210 HD
ENDBRANCH  20  24
ENDBRANCH  14  19
ENDBRANCH   2  13
BRANCH   3  26
HETATM   26  C   UNL     1     -42.574 -44.716  12.920  1.00  0.00     0.171 C 
BRANCH  26  27
HETATM   27  C   UNL     1     -42.199 -43.539  12.008  1.00  0.00     0.097 C 
HETATM   28  C   UNL     1     -40.813 -42.950  12.195  1.00  0.00     0.068 C 
HETATM   29  C   UNL     1     -40.977 -41.503  11.761  1.00  0.00     0.170 C 
HETATM   30  O   UNL     1     -42.358 -41.156  11.905  1.00  0.00    -0.388 OA
HETATM   31  C   UNL     1     -43.082 -42.325  12.315  1.00  0.00     0.207 C 
BRANCH  27  32
HETATM   32  O   UNL     1     -42.394 -43.910  10.634  1.00  0.00    -0.386 OA
HETATM   33  H   UNL     1     -41.555 -44.254  10.279  1.00  0.00     0.210 HD
ENDBRANCH  27  32
ENDBRANCH  26  27
ENDBRANCH   3  26
TORSDOF 6
ENDMDL
MODEL 6
REMARK VINA RESULT:      -6.5      2.287      2.770
REMARK  6 active torsions:
REMARK  status: ('A' for Active; 'I' for Inactive)
REMARK    1  A    between atoms: C_2  and  N_4 
REMARK    2  A    between atoms: N_3  and  C_15 
REMARK    3  A    between atoms: C_9  and  C_10 
REMARK    4  A    between atoms: C_15  and  C_16 
REMARK    5  A    between atoms: C_16  and  O_24 
REMARK    6  A    between atoms: C_18  and  O_27 
ROOT
HETATM    1  C   UNL     1     -40.822 -49.643  12.632  1.00  0.00     0.122 A 
HETATM    2  C   UNL     1     -40.671 -50.511  13.746  1.00  0.00     0.136 A 
HETATM    3  N   UNL     1     -40.431 -47.811  11.496  1.00  0.00    -0.324 N 
HETATM    4  C   UNL     1     -40.247 -48.382  12.721  1.00  0.00     0.140 A 
HETATM    5  N   UNL     1     -41.384 -49.807  11.373  1.00  0.00    -0.346 N 
ATOM      6  HN  UNL     1     -41.877 -50.628  11.021  1.00  0.00     0.167 HD
HETATM    7  C   UNL     1     -41.151 -48.685  10.730  1.00  0.00     0.185 A 
HETATM    8  N   UNL     1     -40.043 -49.980  14.839  1.00  0.00    -0.337 N 
ATOM      9  HN  UNL     1     -39.933 -50.539  15.685  1.00  0.00     0.168 HD
HETATM   10  N   UNL     1     -39.612 -47.849  13.777  1.00  0.00    -0.336 N 
ATOM     11  HN  UNL     1     -39.215 -46.909  13.798  1.00  0.00     0.168 HD
HETATM   12  C   UNL     1     -39.570 -48.716  14.798  1.00  0.00     0.183 A 
ENDROOT
BRANCH   2  13
HETATM   13  N   UNL     1     -41.078 -51.842  13.802  1.00  0.00    -0.356 N 
HETATM   14  C   UNL     1     -42.407 -52.215  14.339  1.00  0.00     0.116 C 
HETATM   15  C   UNL     1     -42.294 -53.677  14.860  1.00  0.00     0.193 C 
HETATM   16  O   UNL     1     -41.878 -54.576  13.819  1.00  0.00    -0.387 OA
HETATM   17  C   UNL     1     -40.557 -54.230  13.379  1.00  0.00     0.187 C 
HETATM   18  C   UNL     1     -40.474 -52.790  12.849  1.00  0.00     0.151 C 
BRANCH  14  19
HETATM   19  C   UNL     1     -43.542 -52.085  13.279  1.00  0.00     0.039 C 
HETATM   20  C   UNL     1     -44.461 -50.848  13.404  1.00  0.00     0.124 C 
HETATM   21  C   UNL     1     -45.893 -51.314  13.127  1.00  0.00     0.032 C 
HETATM   22  C   UNL     1     -45.751 -52.734  12.611  1.00  0.00     0.003 C 
HETATM   23  C   UNL     1     -44.531 -53.257  13.349  1.00  0.00     0.009 C 
BRANCH  20  24
HETATM   24  O   UNL     1     -44.129 -49.854  12.441  1.00  0.00    -0.395 OA
HETATM   25  H   UNL     1     -43.212 -50.012  12.159  1.00  0.00     0.210 HD
ENDBRANCH  20  24
ENDBRANCH  14  19
ENDBRANCH   2  13
BRANCH   3  26
HETATM   26  C   UNL     1     -39.962 -46.506  11.076  1.00  0.00     0.171 C 
BRANCH  26  27
HETATM   27  C   UNL     1     -40.850 -45.337  11.528  1.00  0.00     0.097 C 
HETATM   28  C   UNL     1     -42.303 -45.381  11.092  1.00  0.00     0.068 C 
HETATM   29  C   UNL     1     -42.702 -43.916  11.028  1.00  0.00     0.170 C 
HETATM   30  O   UNL     1     -41.511 -43.145  10.841  1.00  0.00    -0.388 OA
HETATM   31  C   UNL     1     -40.383 -44.032  10.876  1.00  0.00     0.207 C 
BRANCH  27  32
HETATM   32  O   UNL     1     -40.768 -45.191  12.954  1.00  0.00    -0.386 OA
HETATM   33  H   UNL     1     -40.944 -44.261  13.185  1.00  0.00     0.210 HD
ENDBRANCH  27  32
ENDBRANCH  26  27
ENDBRANCH   3  26
TORSDOF 6
ENDMDL
MODEL 7
REMARK VINA RESULT:      -6.5      1.837      2.266
REMARK  6 active torsions:
REMARK  status: ('A' for Active; 'I' for Inactive)
REMARK    1  A    between atoms: C_2  and  N_4 
REMARK    2  A    between atoms: N_3  and  C_15 
REMARK    3  A    between atoms: C_9  and  C_10 
REMARK    4  A    between atoms: C_15  and  C_16 
REMARK    5  A    between atoms: C_16  and  O_24 
REMARK    6  A    between atoms: C_18  and  O_27 
ROOT
HETATM    1  C   UNL     1     -41.310 -49.097  13.169  1.00  0.00     0.122 A 
HETATM    2  C   UNL     1     -40.659 -50.353  13.040  1.00  0.00     0.136 A 
HETATM    3  N   UNL     1     -42.183 -47.243  12.393  1.00  0.00    -0.324 N 
HETATM    4  C   UNL     1     -41.427 -48.318  12.025  1.00  0.00     0.140 A 
HETATM    5  N   UNL     1     -41.955 -48.469  14.225  1.00  0.00    -0.346 N 
ATOM      6  HN  UNL     1     -42.032 -48.803  15.186  1.00  0.00     0.167 HD
HETATM    7  C   UNL     1     -42.446 -47.354  13.731  1.00  0.00     0.185 A 
HETATM    8  N   UNL     1     -40.132 -50.633  11.809  1.00  0.00    -0.337 N 
ATOM      9  HN  UNL     1     -39.623 -51.503  11.659  1.00  0.00     0.168 HD
HETATM   10  N   UNL     1     -40.934 -48.581  10.805  1.00  0.00    -0.336 N 
ATOM     11  HN  UNL     1     -41.037 -47.969   9.996  1.00  0.00     0.168 HD
HETATM   12  C   UNL     1     -40.287 -49.756  10.793  1.00  0.00     0.183 A 
ENDROOT
BRANCH   2  13
HETATM   13  N   UNL     1     -40.543 -51.315  14.040  1.00  0.00    -0.356 N 
HETATM   14  C   UNL     1     -41.741 -51.874  14.710  1.00  0.00     0.116 C 
HETATM   15  C   UNL     1     -41.292 -52.359  16.118  1.00  0.00     0.193 C 
HETATM   16  O   UNL     1     -40.240 -53.333  16.028  1.00  0.00    -0.387 OA
HETATM   17  C   UNL     1     -39.073 -52.734  15.447  1.00  0.00     0.187 C 
HETATM   18  C   UNL     1     -39.342 -52.168  14.044  1.00  0.00     0.151 C 
BRANCH  14  19
HETATM   19  C   UNL     1     -42.396 -53.033  13.900  1.00  0.00     0.039 C 
HETATM   20  C   UNL     1     -43.256 -52.622  12.683  1.00  0.00     0.124 C 
HETATM   21  C   UNL     1     -44.496 -53.520  12.677  1.00  0.00     0.032 C 
HETATM   22  C   UNL     1     -44.218 -54.582  13.724  1.00  0.00     0.003 C 
HETATM   23  C   UNL     1     -43.377 -53.848  14.755  1.00  0.00     0.009 C 
BRANCH  20  24
HETATM   24  O   UNL     1     -42.558 -52.830  11.460  1.00  0.00    -0.395 OA
HETATM   25  H   UNL     1     -42.472 -51.967  11.021  1.00  0.00     0.210 HD
ENDBRANCH  20  24
ENDBRANCH  14  19
ENDBRANCH   2  13
BRANCH   3  26
HETATM   26  C   UNL     1     -42.623 -46.164  11.532  1.00  0.00     0.171 C 
BRANCH  26  27
HETATM   27  C   UNL     1     -41.524 -45.155  11.168  1.00  0.00     0.097 C 
HETATM   28  C   UNL     1     -40.410 -44.970  12.183  1.00  0.00     0.068 C 
HETATM   29  C   UNL     1     -39.945 -43.543  11.947  1.00  0.00     0.170 C 
HETATM   30  O   UNL     1     -41.025 -42.824  11.343  1.00  0.00    -0.388 OA
HETATM   31  C   UNL     1     -42.104 -43.739  11.102  1.00  0.00     0.207 C 
BRANCH  27  32
HETATM   32  O   UNL     1     -40.971 -45.483   9.884  1.00  0.00    -0.386 OA
HETATM   33  H   UNL     1     -41.685 -45.470   9.222  1.00  0.00     0.210 HD
ENDBRANCH  27  32
ENDBRANCH  26  27
ENDBRANCH   3  26
TORSDOF 6
ENDMDL
MODEL 8
REMARK VINA RESULT:      -6.4      2.785      4.196
REMARK  6 active torsions:
REMARK  status: ('A' for Active; 'I' for Inactive)
REMARK    1  A    between atoms: C_2  and  N_4 
REMARK    2  A    between atoms: N_3  and  C_15 
REMARK    3  A    between atoms: C_9  and  C_10 
REMARK    4  A    between atoms: C_15  and  C_16 
REMARK    5  A    between atoms: C_16  and  O_24 
REMARK    6  A    between atoms: C_18  and  O_27 
ROOT
HETATM    1  C   UNL     1     -40.831 -52.405  14.902  1.00  0.00     0.122 A 
HETATM    2  C   UNL     1     -41.870 -53.352  15.109  1.00  0.00     0.136 A 
HETATM    3  N   UNL     1     -39.277 -51.414  13.718  1.00  0.00    -0.324 N 
HETATM    4  C   UNL     1     -40.114 -52.491  13.716  1.00  0.00     0.140 A 
HETATM    5  N   UNL     1     -40.394 -51.306  15.629  1.00  0.00    -0.346 N 
ATOM      6  HN  UNL     1     -40.734 -50.994  16.538  1.00  0.00     0.167 HD
HETATM    7  C   UNL     1     -39.450 -50.751  14.901  1.00  0.00     0.185 A 
HETATM    8  N   UNL     1     -42.003 -54.315  14.147  1.00  0.00    -0.337 N 
ATOM      9  HN  UNL     1     -42.708 -55.045  14.251  1.00  0.00     0.168 HD
HETATM   10  N   UNL     1     -40.240 -53.417  12.753  1.00  0.00    -0.336 N 
ATOM     11  HN  UNL     1     -39.680 -53.445  11.901  1.00  0.00     0.168 HD
HETATM   12  C   UNL     1     -41.202 -54.300  13.060  1.00  0.00     0.183 A 
ENDROOT
BRANCH   2  13
HETATM   13  N   UNL     1     -42.764 -53.358  16.176  1.00  0.00    -0.356 N 
HETATM   14  C   UNL     1     -43.730 -52.251  16.374  1.00  0.00     0.116 C 
HETATM   15  C   UNL     1     -44.075 -52.213  17.891  1.00  0.00     0.193 C 
HETATM   16  O   UNL     1     -44.616 -53.466  18.339  1.00  0.00    -0.387 OA
HETATM   17  C   UNL     1     -43.626 -54.497  18.204  1.00  0.00     0.187 C 
HETATM   18  C   UNL     1     -43.143 -54.659  16.754  1.00  0.00     0.151 C 
BRANCH  14  19
HETATM   19  C   UNL     1     -45.016 -52.414  15.510  1.00  0.00     0.039 C 
HETATM   20  C   UNL     1     -44.851 -52.217  13.986  1.00  0.00     0.124 C 
HETATM   21  C   UNL     1     -46.065 -51.424  13.494  1.00  0.00     0.032 C 
HETATM   22  C   UNL     1     -47.018 -51.392  14.675  1.00  0.00     0.003 C 
HETATM   23  C   UNL     1     -46.089 -51.379  15.877  1.00  0.00     0.009 C 
BRANCH  20  24
HETATM   24  O   UNL     1     -44.834 -53.464  13.300  1.00  0.00    -0.395 OA
HETATM   25  H   UNL     1     -44.583 -53.289  12.378  1.00  0.00     0.210 HD
ENDBRANCH  20  24
ENDBRANCH  14  19
ENDBRANCH   2  13
BRANCH   3  26
HETATM   26  C   UNL     1     -38.356 -51.038  12.665  1.00  0.00     0.171 C 
BRANCH  26  27
HETATM   27  C   UNL     1     -38.855 -49.902  11.760  1.00  0.00     0.097 C 
HETATM   28  C   UNL     1     -38.893 -48.513  12.373  1.00  0.00     0.068 C 
HETATM   29  C   UNL     1     -40.009 -47.817  11.612  1.00  0.00     0.170 C 
HETATM   30  O   UNL     1     -40.883 -48.824  11.095  1.00  0.00    -0.388 OA
HETATM   31  C   UNL     1     -40.331 -50.112  11.408  1.00  0.00     0.207 C 
BRANCH  27  32
HETATM   32  O   UNL     1     -38.093 -49.882  10.543  1.00  0.00    -0.386 OA
HETATM   33  H   UNL     1     -37.193 -50.200  10.731  1.00  0.00     0.210 HD
ENDBRANCH  27  32
ENDBRANCH  26  27
ENDBRANCH   3  26
TORSDOF 6
ENDMDL
MODEL 9
REMARK VINA RESULT:      -6.3      3.010      4.106
REMARK  6 active torsions:
REMARK  status: ('A' for Active; 'I' for Inactive)
REMARK    1  A    between atoms: C_2  and  N_4 
REMARK    2  A    between atoms: N_3  and  C_15 
REMARK    3  A    between atoms: C_9  and  C_10 
REMARK    4  A    between atoms: C_15  and  C_16 
REMARK    5  A    between atoms: C_16  and  O_24 
REMARK    6  A    between atoms: C_18  and  O_27 
ROOT
HETATM    1  C   UNL     1     -42.738 -51.073  12.804  1.00  0.00     0.122 A 
HETATM    2  C   UNL     1     -42.613 -52.408  13.272  1.00  0.00     0.136 A 
HETATM    3  N   UNL     1     -42.095 -49.320  11.657  1.00  0.00    -0.324 N 
HETATM    4  C   UNL     1     -41.673 -50.546  12.084  1.00  0.00     0.140 A 
HETATM    5  N   UNL     1     -43.773 -50.149  12.843  1.00  0.00    -0.346 N 
ATOM      6  HN  UNL     1     -44.678 -50.257  13.301  1.00  0.00     0.167 HD
HETATM    7  C   UNL     1     -43.345 -49.106  12.167  1.00  0.00     0.185 A 
HETATM    8  N   UNL     1     -41.410 -53.015  13.041  1.00  0.00    -0.337 N 
ATOM      9  HN  UNL     1     -41.242 -53.961  13.381  1.00  0.00     0.168 HD
HETATM   10  N   UNL     1     -40.492 -51.130  11.830  1.00  0.00    -0.336 N 
ATOM     11  HN  UNL     1     -39.734 -50.696  11.305  1.00  0.00     0.168 HD
HETATM   12  C   UNL     1     -40.443 -52.361  12.360  1.00  0.00     0.183 A 
ENDROOT
BRANCH   2  13
HETATM   13  N   UNL     1     -43.609 -53.142  13.911  1.00  0.00    -0.356 N 
HETATM   14  C   UNL     1     -43.900 -52.949  15.351  1.00  0.00     0.116 C 
HETATM   15  C   UNL     1     -44.523 -54.276  15.872  1.00  0.00     0.193 C 
HETATM   16  O   UNL     1     -45.709 -54.624  15.140  1.00  0.00    -0.387 OA
HETATM   17  C   UNL     1     -45.374 -54.879  13.768  1.00  0.00     0.187 C 
HETATM   18  C   UNL     1     -44.715 -53.668  13.091  1.00  0.00     0.151 C 
BRANCH  14  19
HETATM   19  C   UNL     1     -44.851 -51.742  15.615  1.00  0.00     0.039 C 
HETATM   20  C   UNL     1     -44.286 -50.600  16.490  1.00  0.00     0.124 C 
HETATM   21  C   UNL     1     -45.407 -50.149  17.431  1.00  0.00     0.032 C 
HETATM   22  C   UNL     1     -46.652 -50.853  16.924  1.00  0.00     0.003 C 
HETATM   23  C   UNL     1     -46.116 -52.164  16.374  1.00  0.00     0.009 C 
BRANCH  20  24
HETATM   24  O   UNL     1     -43.900 -49.482  15.699  1.00  0.00    -0.395 OA
HETATM   25  H   UNL     1     -43.284 -48.946  16.227  1.00  0.00     0.210 HD
ENDBRANCH  20  24
ENDBRANCH  14  19
ENDBRANCH   2  13
BRANCH   3  26
HETATM   26  C   UNL     1     -41.352 -48.397  10.824  1.00  0.00     0.171 C 
BRANCH  26  27
HETATM   27  C   UNL     1     -40.240 -47.633  11.558  1.00  0.00     0.097 C 
HETATM   28  C   UNL     1     -40.497 -47.297  13.016  1.00  0.00     0.068 C 
HETATM   29  C   UNL     1     -39.681 -46.035  13.241  1.00  0.00     0.170 C 
HETATM   30  O   UNL     1     -39.497 -45.399  11.973  1.00  0.00    -0.388 OA
HETATM   31  C   UNL     1     -40.070 -46.235  10.956  1.00  0.00     0.207 C 
BRANCH  27  32
HETATM   32  O   UNL     1     -38.998 -48.341  11.428  1.00  0.00    -0.386 OA
HETATM   33  H   UNL     1     -38.977 -49.061  12.083  1.00  0.00     0.210 HD
ENDBRANCH  27  32
ENDBRANCH  26  27
ENDBRANCH   3  26
TORSDOF 6
ENDMDL
