MODEL 1
REMARK VINA RESULT:      -5.6      0.000      0.000
REMARK  5 active torsions:
REMARK  status: ('A' for Active; 'I' for Inactive)
REMARK    1  A    between atoms: C_2  and  C_4 
REMARK    2  A    between atoms: C_7  and  C_8 
REMARK    3  A    between atoms: C_8  and  C_9 
REMARK    4  A    between atoms: C_9  and  N_10 
REMARK       I    between atoms: N_10  and  C_11 
REMARK       I    between atoms: C_11  and  N_13 
REMARK    5  A    between atoms: N_13  and  C_14 
ROOT
HETATM    1  C   UNL     1     -41.220 -52.007  11.961  1.00  0.00     0.077 C 
ENDROOT
BRANCH   1   2
HETATM    2  C   UNL     1     -42.370 -52.050  12.915  1.00  0.00     0.018 A 
HETATM    3  N   UNL     1     -43.618 -51.614  12.493  1.00  0.00    -0.356 N 
HETATM    4  C   UNL     1     -44.492 -51.717  13.475  1.00  0.00     0.054 A 
ATOM      5  HN  UNL     1     -43.830 -51.265  11.558  1.00  0.00     0.166 HD
HETATM    6  S   UNL     1     -43.874 -52.374  14.941  1.00  0.00    -0.086 SA
HETATM    7  C   UNL     1     -42.327 -52.494  14.223  1.00  0.00     0.076 A 
BRANCH   4   8
HETATM    8  C   UNL     1     -45.931 -51.275  13.397  1.00  0.00     0.035 C 
HETATM    9  C   UNL     1     -46.626 -51.949  12.214  1.00  0.00     0.016 C 
HETATM   10  C   UNL     1     -46.671 -51.573  14.700  1.00  0.00     0.016 C 
ENDBRANCH   4   8
ENDBRANCH   1   2
BRANCH   1  11
HETATM   11  C   UNL     1     -40.513 -50.649  11.966  1.00  0.00     0.130 C 
BRANCH  11  12
HETATM   12  N   UNL     1     -40.891 -49.795  10.846  1.00  0.00    -0.343 N 
HETATM   13  C   UNL     1     -41.897 -48.870  10.985  1.00  0.00     0.316 C 
HETATM   14  O   UNL     1     -42.444 -48.624  12.055  1.00  0.00    -0.247 OA
HETATM   15  N   UNL     1     -42.189 -48.230   9.806  1.00  0.00    -0.339 N 
HETATM   16  H   UNL     1     -41.659 -48.466   8.982  1.00  0.00     0.164 HD
HETATM   17  H   UNL     1     -40.733 -50.161   9.920  1.00  0.00     0.164 HD
BRANCH  15  18
HETATM   18  C   UNL     1     -43.137 -47.160   9.734  1.00  0.00     0.086 A 
HETATM   19  C   UNL     1     -44.458 -47.362   9.049  1.00  0.00     0.027 A 
HETATM   20  C   UNL     1     -43.427 -46.462   8.437  1.00  0.00     0.027 A 
ENDBRANCH  15  18
ENDBRANCH  11  12
ENDBRANCH   1  11
TORSDOF 5
ENDMDL
MODEL 2
REMARK VINA RESULT:      -5.6      2.021      5.350
REMARK  5 active torsions:
REMARK  status: ('A' for Active; 'I' for Inactive)
REMARK    1  A    between atoms: C_2  and  C_4 
REMARK    2  A    between atoms: C_7  and  C_8 
REMARK    3  A    between atoms: C_8  and  C_9 
REMARK    4  A    between atoms: C_9  and  N_10 
REMARK       I    between atoms: N_10  and  C_11 
REMARK       I    between atoms: C_11  and  N_13 
REMARK    5  A    between atoms: N_13  and  C_14 
ROOT
HETATM    1  C   UNL     1     -40.112 -49.726  11.119  1.00  0.00     0.077 C 
ENDROOT
BRANCH   1   2
HETATM    2  C   UNL     1     -41.207 -48.715  11.000  1.00  0.00     0.018 A 
HETATM    3  N   UNL     1     -41.864 -48.565   9.786  1.00  0.00    -0.356 N 
HETATM    4  C   UNL     1     -42.781 -47.622   9.878  1.00  0.00     0.054 A 
ATOM      5  HN  UNL     1     -41.665 -49.106   8.944  1.00  0.00     0.166 HD
HETATM    6  S   UNL     1     -42.930 -46.893  11.430  1.00  0.00    -0.086 SA
HETATM    7  C   UNL     1     -41.657 -47.880  12.005  1.00  0.00     0.076 A 
BRANCH   4   8
HETATM    8  C   UNL     1     -43.643 -47.145   8.737  1.00  0.00     0.035 C 
HETATM    9  C   UNL     1     -43.417 -48.020   7.505  1.00  0.00     0.016 C 
HETATM   10  C   UNL     1     -45.119 -47.133   9.129  1.00  0.00     0.016 C 
ENDBRANCH   4   8
ENDBRANCH   1   2
BRANCH   1  11
HETATM   11  C   UNL     1     -40.504 -50.902  12.017  1.00  0.00     0.130 C 
BRANCH  11  12
HETATM   12  N   UNL     1     -41.841 -51.415  11.748  1.00  0.00    -0.343 N 
HETATM   13  C   UNL     1     -42.721 -51.641  12.778  1.00  0.00     0.316 C 
HETATM   14  O   UNL     1     -42.493 -51.324  13.942  1.00  0.00    -0.247 OA
HETATM   15  N   UNL     1     -43.891 -52.220  12.354  1.00  0.00    -0.339 N 
HETATM   16  H   UNL     1     -44.011 -52.407  11.371  1.00  0.00     0.164 HD
HETATM   17  H   UNL     1     -41.955 -51.978  10.920  1.00  0.00     0.164 HD
BRANCH  15  18
HETATM   18  C   UNL     1     -44.989 -52.458  13.240  1.00  0.00     0.086 A 
HETATM   19  C   UNL     1     -46.401 -52.389  12.734  1.00  0.00     0.027 A 
HETATM   20  C   UNL     1     -45.892 -51.343  13.679  1.00  0.00     0.027 A 
ENDBRANCH  15  18
ENDBRANCH  11  12
ENDBRANCH   1  11
TORSDOF 5
ENDMDL
MODEL 3
REMARK VINA RESULT:      -5.2      3.416      6.253
REMARK  5 active torsions:
REMARK  status: ('A' for Active; 'I' for Inactive)
REMARK    1  A    between atoms: C_2  and  C_4 
REMARK    2  A    between atoms: C_7  and  C_8 
REMARK    3  A    between atoms: C_8  and  C_9 
REMARK    4  A    between atoms: C_9  and  N_10 
REMARK       I    between atoms: N_10  and  C_11 
REMARK       I    between atoms: C_11  and  N_13 
REMARK    5  A    between atoms: N_13  and  C_14 
ROOT
HETATM    1  C   UNL     1     -40.389 -48.784  11.787  1.00  0.00     0.077 C 
ENDROOT
BRANCH   1   2
HETATM    2  C   UNL     1     -41.236 -47.747  11.122  1.00  0.00     0.018 A 
HETATM    3  N   UNL     1     -42.184 -48.141  10.187  1.00  0.00    -0.356 N 
HETATM    4  C   UNL     1     -42.815 -47.088   9.707  1.00  0.00     0.054 A 
ATOM      5  HN  UNL     1     -42.366 -49.106   9.912  1.00  0.00     0.166 HD
HETATM    6  S   UNL     1     -42.333 -45.576  10.374  1.00  0.00    -0.086 SA
HETATM    7  C   UNL     1     -41.178 -46.384  11.343  1.00  0.00     0.076 A 
BRANCH   4   8
HETATM    8  C   UNL     1     -43.864 -47.132   8.625  1.00  0.00     0.035 C 
HETATM    9  C   UNL     1     -43.418 -48.060   7.496  1.00  0.00     0.016 C 
HETATM   10  C   UNL     1     -45.216 -47.573   9.185  1.00  0.00     0.016 C 
ENDBRANCH   4   8
ENDBRANCH   1   2
BRANCH   1  11
HETATM   11  C   UNL     1     -40.264 -50.057  10.944  1.00  0.00     0.130 C 
BRANCH  11  12
HETATM   12  N   UNL     1     -41.178 -51.115  11.356  1.00  0.00    -0.343 N 
HETATM   13  C   UNL     1     -40.745 -52.130  12.174  1.00  0.00     0.316 C 
HETATM   14  O   UNL     1     -39.633 -52.149  12.694  1.00  0.00    -0.247 OA
HETATM   15  N   UNL     1     -41.705 -53.091  12.374  1.00  0.00    -0.339 N 
HETATM   16  H   UNL     1     -42.607 -52.972  11.941  1.00  0.00     0.164 HD
HETATM   17  H   UNL     1     -41.941 -51.327  10.732  1.00  0.00     0.164 HD
BRANCH  15  18
HETATM   18  C   UNL     1     -41.507 -54.191  13.268  1.00  0.00     0.086 A 
HETATM   19  C   UNL     1     -42.607 -54.620  14.196  1.00  0.00     0.027 A 
HETATM   20  C   UNL     1     -41.369 -53.978  14.747  1.00  0.00     0.027 A 
ENDBRANCH  15  18
ENDBRANCH  11  12
ENDBRANCH   1  11
TORSDOF 5
ENDMDL
MODEL 4
REMARK VINA RESULT:      -5.0      4.182      5.626
REMARK  5 active torsions:
REMARK  status: ('A' for Active; 'I' for Inactive)
REMARK    1  A    between atoms: C_2  and  C_4 
REMARK    2  A    between atoms: C_7  and  C_8 
REMARK    3  A    between atoms: C_8  and  C_9 
REMARK    4  A    between atoms: C_9  and  N_10 
REMARK       I    between atoms: N_10  and  C_11 
REMARK       I    between atoms: C_11  and  N_13 
REMARK    5  A    between atoms: N_13  and  C_14 
ROOT
HETATM    1  C   UNL     1     -40.685 -45.833  12.183  1.00  0.00     0.077 C 
ENDROOT
BRANCH   1   2
HETATM    2  C   UNL     1     -40.054 -46.943  12.962  1.00  0.00     0.018 A 
HETATM    3  N   UNL     1     -39.184 -47.813  12.319  1.00  0.00    -0.356 N 
HETATM    4  C   UNL     1     -38.745 -48.724  13.165  1.00  0.00     0.054 A 
ATOM      5  HN  UNL     1     -38.923 -47.757  11.335  1.00  0.00     0.166 HD
HETATM    6  S   UNL     1     -39.320 -48.564  14.779  1.00  0.00    -0.086 SA
HETATM    7  C   UNL     1     -40.246 -47.208  14.304  1.00  0.00     0.076 A 
BRANCH   4   8
HETATM    8  C   UNL     1     -37.835 -49.870  12.801  1.00  0.00     0.035 C 
HETATM    9  C   UNL     1     -38.467 -51.198  13.217  1.00  0.00     0.016 C 
HETATM   10  C   UNL     1     -37.515 -49.868  11.307  1.00  0.00     0.016 C 
ENDBRANCH   4   8
ENDBRANCH   1   2
BRANCH   1  11
HETATM   11  C   UNL     1     -41.104 -46.277  10.779  1.00  0.00     0.130 C 
BRANCH  11  12
HETATM   12  N   UNL     1     -42.423 -46.896  10.737  1.00  0.00    -0.343 N 
HETATM   13  C   UNL     1     -43.294 -46.611   9.713  1.00  0.00     0.316 C 
HETATM   14  O   UNL     1     -42.988 -45.933   8.737  1.00  0.00    -0.247 OA
HETATM   15  N   UNL     1     -44.522 -47.198   9.889  1.00  0.00    -0.339 N 
HETATM   16  H   UNL     1     -44.672 -47.775  10.701  1.00  0.00     0.164 HD
HETATM   17  H   UNL     1     -42.829 -47.165  11.619  1.00  0.00     0.164 HD
BRANCH  15  18
HETATM   18  C   UNL     1     -45.554 -47.116   8.901  1.00  0.00     0.086 A 
HETATM   19  C   UNL     1     -46.990 -47.330   9.285  1.00  0.00     0.027 A 
HETATM   20  C   UNL     1     -46.284 -48.341   8.432  1.00  0.00     0.027 A 
ENDBRANCH  15  18
ENDBRANCH  11  12
ENDBRANCH   1  11
TORSDOF 5
ENDMDL
MODEL 5
REMARK VINA RESULT:      -4.9      3.442      4.024
REMARK  5 active torsions:
REMARK  status: ('A' for Active; 'I' for Inactive)
REMARK    1  A    between atoms: C_2  and  C_4 
REMARK    2  A    between atoms: C_7  and  C_8 
REMARK    3  A    between atoms: C_8  and  C_9 
REMARK    4  A    between atoms: C_9  and  N_10 
REMARK       I    between atoms: N_10  and  C_11 
REMARK       I    between atoms: C_11  and  N_13 
REMARK    5  A    between atoms: N_13  and  C_14 
ROOT
HETATM    1  C   UNL     1     -41.910 -54.446  13.706  1.00  0.00     0.077 C 
ENDROOT
BRANCH   1   2
HETATM    2  C   UNL     1     -43.362 -54.139  13.889  1.00  0.00     0.018 A 
HETATM    3  N   UNL     1     -43.832 -52.871  13.579  1.00  0.00    -0.356 N 
HETATM    4  C   UNL     1     -45.126 -52.794  13.818  1.00  0.00     0.054 A 
ATOM      5  HN  UNL     1     -43.260 -52.108  13.218  1.00  0.00     0.166 HD
HETATM    6  S   UNL     1     -45.854 -54.245  14.392  1.00  0.00    -0.086 SA
HETATM    7  C   UNL     1     -44.327 -55.014  14.350  1.00  0.00     0.076 A 
BRANCH   4   8
HETATM    8  C   UNL     1     -45.959 -51.548  13.659  1.00  0.00     0.035 C 
HETATM    9  C   UNL     1     -46.716 -51.586  12.332  1.00  0.00     0.016 C 
HETATM   10  C   UNL     1     -46.927 -51.377  14.829  1.00  0.00     0.016 C 
ENDBRANCH   4   8
ENDBRANCH   1   2
BRANCH   1  11
HETATM   11  C   UNL     1     -41.024 -53.651  14.669  1.00  0.00     0.130 C 
BRANCH  11  12
HETATM   12  N   UNL     1     -39.897 -52.999  14.015  1.00  0.00    -0.343 N 
HETATM   13  C   UNL     1     -40.077 -51.825  13.324  1.00  0.00     0.316 C 
HETATM   14  O   UNL     1     -41.136 -51.206  13.311  1.00  0.00    -0.247 OA
HETATM   15  N   UNL     1     -38.934 -51.410  12.687  1.00  0.00    -0.339 N 
HETATM   16  H   UNL     1     -38.096 -51.959  12.788  1.00  0.00     0.164 HD
HETATM   17  H   UNL     1     -39.137 -53.591  13.719  1.00  0.00     0.164 HD
BRANCH  15  18
HETATM   18  C   UNL     1     -38.862 -50.164  11.986  1.00  0.00     0.086 A 
HETATM   19  C   UNL     1     -37.563 -49.702  11.392  1.00  0.00     0.027 A 
HETATM   20  C   UNL     1     -38.146 -48.981  12.570  1.00  0.00     0.027 A 
ENDBRANCH  15  18
ENDBRANCH  11  12
ENDBRANCH   1  11
TORSDOF 5
ENDMDL
MODEL 6
REMARK VINA RESULT:      -4.9      3.524      5.801
REMARK  5 active torsions:
REMARK  status: ('A' for Active; 'I' for Inactive)
REMARK    1  A    between atoms: C_2  and  C_4 
REMARK    2  A    between atoms: C_7  and  C_8 
REMARK    3  A    between atoms: C_8  and  C_9 
REMARK    4  A    between atoms: C_9  and  N_10 
REMARK       I    between atoms: N_10  and  C_11 
REMARK       I    between atoms: C_11  and  N_13 
REMARK    5  A    between atoms: N_13  and  C_14 
ROOT
HETATM    1  C   UNL     1     -40.226 -54.025  14.114  1.00  0.00     0.077 C 
ENDROOT
BRANCH   1   2
HETATM    2  C   UNL     1     -39.502 -52.740  14.359  1.00  0.00     0.018 A 
HETATM    3  N   UNL     1     -39.325 -51.850  13.309  1.00  0.00    -0.356 N 
HETATM    4  C   UNL     1     -38.658 -50.789  13.718  1.00  0.00     0.054 A 
ATOM      5  HN  UNL     1     -39.664 -51.995  12.357  1.00  0.00     0.166 HD
HETATM    6  S   UNL     1     -38.239 -50.786  15.388  1.00  0.00    -0.086 SA
HETATM    7  C   UNL     1     -38.969 -52.322  15.564  1.00  0.00     0.076 A 
BRANCH   4   8
HETATM    8  C   UNL     1     -38.228 -49.647  12.833  1.00  0.00     0.035 C 
HETATM    9  C   UNL     1     -37.502 -50.182  11.598  1.00  0.00     0.016 C 
HETATM   10  C   UNL     1     -39.422 -48.785  12.427  1.00  0.00     0.016 C 
ENDBRANCH   4   8
ENDBRANCH   1   2
BRANCH   1  11
HETATM   11  C   UNL     1     -40.976 -54.022  12.779  1.00  0.00     0.130 C 
BRANCH  11  12
HETATM   12  N   UNL     1     -42.421 -53.900  12.927  1.00  0.00    -0.343 N 
HETATM   13  C   UNL     1     -43.018 -52.663  12.930  1.00  0.00     0.316 C 
HETATM   14  O   UNL     1     -42.413 -51.621  12.698  1.00  0.00    -0.247 OA
HETATM   15  N   UNL     1     -44.366 -52.731  13.184  1.00  0.00    -0.339 N 
HETATM   16  H   UNL     1     -44.788 -53.635  13.322  1.00  0.00     0.164 HD
HETATM   17  H   UNL     1     -42.891 -54.635  13.431  1.00  0.00     0.164 HD
BRANCH  15  18
HETATM   18  C   UNL     1     -45.208 -51.574  13.141  1.00  0.00     0.086 A 
HETATM   19  C   UNL     1     -46.423 -51.489  14.019  1.00  0.00     0.027 A 
HETATM   20  C   UNL     1     -46.580 -51.631  12.534  1.00  0.00     0.027 A 
ENDBRANCH  15  18
ENDBRANCH  11  12
ENDBRANCH   1  11
TORSDOF 5
ENDMDL
MODEL 7
REMARK VINA RESULT:      -4.9      2.173      2.444
REMARK  5 active torsions:
REMARK  status: ('A' for Active; 'I' for Inactive)
REMARK    1  A    between atoms: C_2  and  C_4 
REMARK    2  A    between atoms: C_7  and  C_8 
REMARK    3  A    between atoms: C_8  and  C_9 
REMARK    4  A    between atoms: C_9  and  N_10 
REMARK       I    between atoms: N_10  and  C_11 
REMARK       I    between atoms: C_11  and  N_13 
REMARK    5  A    between atoms: N_13  and  C_14 
ROOT
HETATM    1  C   UNL     1     -41.221 -52.949  13.271  1.00  0.00     0.077 C 
ENDROOT
BRANCH   1   2
HETATM    2  C   UNL     1     -42.699 -53.119  13.421  1.00  0.00     0.018 A 
HETATM    3  N   UNL     1     -43.534 -52.036  13.183  1.00  0.00    -0.356 N 
HETATM    4  C   UNL     1     -44.791 -52.380  13.380  1.00  0.00     0.054 A 
ATOM      5  HN  UNL     1     -43.220 -51.109  12.897  1.00  0.00     0.166 HD
HETATM    6  S   UNL     1     -45.042 -54.024  13.824  1.00  0.00    -0.086 SA
HETATM    7  C   UNL     1     -43.352 -54.281  13.785  1.00  0.00     0.076 A 
BRANCH   4   8
HETATM    8  C   UNL     1     -45.967 -51.441  13.277  1.00  0.00     0.035 C 
HETATM    9  C   UNL     1     -46.835 -51.815  12.076  1.00  0.00     0.016 C 
HETATM   10  C   UNL     1     -46.791 -51.446  14.564  1.00  0.00     0.016 C 
ENDBRANCH   4   8
ENDBRANCH   1   2
BRANCH   1  11
HETATM   11  C   UNL     1     -40.839 -52.390  11.897  1.00  0.00     0.130 C 
BRANCH  11  12
HETATM   12  N   UNL     1     -40.147 -51.109  11.965  1.00  0.00    -0.343 N 
HETATM   13  C   UNL     1     -40.853 -49.932  11.913  1.00  0.00     0.316 C 
HETATM   14  O   UNL     1     -42.079 -49.880  11.926  1.00  0.00    -0.247 OA
HETATM   15  N   UNL     1     -40.036 -48.829  11.885  1.00  0.00    -0.339 N 
HETATM   16  H   UNL     1     -39.038 -48.964  11.921  1.00  0.00     0.164 HD
HETATM   17  H   UNL     1     -39.197 -51.086  11.630  1.00  0.00     0.164 HD
BRANCH  15  18
HETATM   18  C   UNL     1     -40.554 -47.496  11.925  1.00  0.00     0.086 A 
HETATM   19  C   UNL     1     -40.034 -46.451  10.980  1.00  0.00     0.027 A 
HETATM   20  C   UNL     1     -39.728 -46.354  12.445  1.00  0.00     0.027 A 
ENDBRANCH  15  18
ENDBRANCH  11  12
ENDBRANCH   1  11
TORSDOF 5
ENDMDL
MODEL 8
REMARK VINA RESULT:      -4.8      2.113      2.358
REMARK  5 active torsions:
REMARK  status: ('A' for Active; 'I' for Inactive)
REMARK    1  A    between atoms: C_2  and  C_4 
REMARK    2  A    between atoms: C_7  and  C_8 
REMARK    3  A    between atoms: C_8  and  C_9 
REMARK    4  A    between atoms: C_9  and  N_10 
REMARK       I    between atoms: N_10  and  C_11 
REMARK       I    between atoms: C_11  and  N_13 
REMARK    5  A    between atoms: N_13  and  C_14 
ROOT
HETATM    1  C   UNL     1     -41.597 -51.113  12.143  1.00  0.00     0.077 C 
ENDROOT
BRANCH   1   2
HETATM    2  C   UNL     1     -42.718 -51.000  13.127  1.00  0.00     0.018 A 
HETATM    3  N   UNL     1     -43.999 -51.370  12.741  1.00  0.00    -0.356 N 
HETATM    4  C   UNL     1     -44.845 -51.188  13.736  1.00  0.00     0.054 A 
ATOM      5  HN  UNL     1     -44.251 -51.730  11.820  1.00  0.00     0.166 HD
HETATM    6  S   UNL     1     -44.145 -50.600  15.195  1.00  0.00    -0.086 SA
HETATM    7  C   UNL     1     -42.616 -50.553  14.430  1.00  0.00     0.076 A 
BRANCH   4   8
HETATM    8  C   UNL     1     -46.332 -51.421  13.656  1.00  0.00     0.035 C 
HETATM    9  C   UNL     1     -46.739 -51.738  12.217  1.00  0.00     0.016 C 
HETATM   10  C   UNL     1     -46.766 -52.541  14.601  1.00  0.00     0.016 C 
ENDBRANCH   4   8
ENDBRANCH   1   2
BRANCH   1  11
HETATM   11  C   UNL     1     -40.374 -50.292  12.563  1.00  0.00     0.130 C 
BRANCH  11  12
HETATM   12  N   UNL     1     -40.015 -49.257  11.602  1.00  0.00    -0.343 N 
HETATM   13  C   UNL     1     -40.492 -47.977  11.746  1.00  0.00     0.316 C 
HETATM   14  O   UNL     1     -41.133 -47.602  12.723  1.00  0.00    -0.247 OA
HETATM   15  N   UNL     1     -40.139 -47.162  10.699  1.00  0.00    -0.339 N 
HETATM   16  H   UNL     1     -39.574 -47.544   9.957  1.00  0.00     0.164 HD
HETATM   17  H   UNL     1     -39.797 -49.559  10.666  1.00  0.00     0.164 HD
BRANCH  15  18
HETATM   18  C   UNL     1     -40.446 -45.765  10.683  1.00  0.00     0.086 A 
HETATM   19  C   UNL     1     -39.531 -44.795   9.992  1.00  0.00     0.027 A 
HETATM   20  C   UNL     1     -39.646 -44.782  11.487  1.00  0.00     0.027 A 
ENDBRANCH  15  18
ENDBRANCH  11  12
ENDBRANCH   1  11
TORSDOF 5
ENDMDL
MODEL 9
REMARK VINA RESULT:      -4.6      2.680      3.329
REMARK  5 active torsions:
REMARK  status: ('A' for Active; 'I' for Inactive)
REMARK    1  A    between atoms: C_2  and  C_4 
REMARK    2  A    between atoms: C_7  and  C_8 
REMARK    3  A    between atoms: C_8  and  C_9 
REMARK    4  A    between atoms: C_9  and  N_10 
REMARK       I    between atoms: N_10  and  C_11 
REMARK       I    between atoms: C_11  and  N_13 
REMARK    5  A    between atoms: N_13  and  C_14 
ROOT
HETATM    1  C   UNL     1     -39.822 -51.013  12.369  1.00  0.00     0.077 C 
ENDROOT
BRANCH   1   2
HETATM    2  C   UNL     1     -40.256 -52.207  13.157  1.00  0.00     0.018 A 
HETATM    3  N   UNL     1     -41.506 -52.761  12.918  1.00  0.00    -0.356 N 
HETATM    4  C   UNL     1     -41.708 -53.791  13.715  1.00  0.00     0.054 A 
ATOM      5  HN  UNL     1     -42.173 -52.420  12.225  1.00  0.00     0.166 HD
HETATM    6  S   UNL     1     -40.399 -54.172  14.766  1.00  0.00    -0.086 SA
HETATM    7  C   UNL     1     -39.520 -52.848  14.136  1.00  0.00     0.076 A 
BRANCH   4   8
HETATM    8  C   UNL     1     -42.982 -54.594  13.779  1.00  0.00     0.035 C 
HETATM    9  C   UNL     1     -43.435 -54.750  15.230  1.00  0.00     0.016 C 
HETATM   10  C   UNL     1     -44.082 -53.953  12.935  1.00  0.00     0.016 C 
ENDBRANCH   4   8
ENDBRANCH   1   2
BRANCH   1  11
HETATM   11  C   UNL     1     -40.951 -50.452  11.499  1.00  0.00     0.130 C 
BRANCH  11  12
HETATM   12  N   UNL     1     -40.576 -49.247  10.771  1.00  0.00    -0.343 N 
HETATM   13  C   UNL     1     -40.879 -48.006  11.276  1.00  0.00     0.316 C 
HETATM   14  O   UNL     1     -41.361 -47.831  12.390  1.00  0.00    -0.247 OA
HETATM   15  N   UNL     1     -40.547 -46.991  10.412  1.00  0.00    -0.339 N 
HETATM   16  H   UNL     1     -40.115 -47.225   9.533  1.00  0.00     0.164 HD
HETATM   17  H   UNL     1     -40.499 -49.325   9.769  1.00  0.00     0.164 HD
BRANCH  15  18
HETATM   18  C   UNL     1     -40.685 -45.612  10.769  1.00  0.00     0.086 A 
HETATM   19  C   UNL     1     -39.732 -44.589  10.221  1.00  0.00     0.027 A 
HETATM   20  C   UNL     1     -39.698 -44.939  11.678  1.00  0.00     0.027 A 
ENDBRANCH  15  18
ENDBRANCH  11  12
ENDBRANCH   1  11
TORSDOF 5
ENDMDL
