MODEL 1
REMARK VINA RESULT:      -5.6      0.000      0.000
REMARK  6 active torsions:
REMARK  status: ('A' for Active; 'I' for Inactive)
REMARK    1  A    between atoms: C_8  and  N_9 
REMARK    2  A    between atoms: N_9  and  C_10 
REMARK    3  A    between atoms: C_10  and  C_11 
REMARK    4  A    between atoms: C_11  and  O_12 
REMARK    5  A    between atoms: O_12  and  C_13 
REMARK    6  A    between atoms: C_13  and  C_14 
ROOT
HETATM    1  N   UNL     1     -40.874 -51.628  11.454  1.00  0.00    -0.373 N 
HETATM    2  H   UNL     1     -40.805 -52.060  10.539  1.00  0.00     0.161 HD
ENDROOT
BRANCH   1   3
HETATM    3  C   UNL     1     -40.727 -50.264  11.400  1.00  0.00     0.124 A 
HETATM    4  C   UNL     1     -39.533 -49.516  11.499  1.00  0.00     0.049 A 
HETATM    5  N   UNL     1     -39.520 -48.153  11.452  1.00  0.00    -0.365 N 
HETATM    6  C   UNL     1     -38.168 -50.108  11.658  1.00  0.00     0.072 C 
HETATM    7  C   UNL     1     -40.711 -47.547  11.317  1.00  0.00     0.112 A 
ATOM      8  HN  UNL     1     -38.651 -47.621  11.516  1.00  0.00     0.165 HD
HETATM    9  C   UNL     1     -41.894 -48.255  11.220  1.00  0.00     0.022 A 
HETATM   10  C   UNL     1     -43.199 -47.538  11.065  1.00  0.00     0.069 C 
HETATM   11  N   UNL     1     -41.911 -49.614  11.258  1.00  0.00    -0.344 N 
ATOM     12  HN  UNL     1     -42.788 -50.130  11.183  1.00  0.00     0.167 HD
ENDBRANCH   1   3
BRANCH   1  13
HETATM   13  C   UNL     1     -40.904 -52.439  12.647  1.00  0.00     0.147 C 
BRANCH  13  14
HETATM   14  C   UNL     1     -42.163 -52.293  13.503  1.00  0.00     0.187 C 
BRANCH  14  15
HETATM   15  O   UNL     1     -43.250 -52.130  12.581  1.00  0.00    -0.387 OA
BRANCH  15  16
HETATM   16  C   UNL     1     -44.041 -53.303  12.423  1.00  0.00     0.199 C 
BRANCH  16  17
HETATM   17  C   UNL     1     -45.461 -53.026  12.919  1.00  0.00     0.145 C 
HETATM   18  C   UNL     1     -45.817 -51.547  13.015  1.00  0.00     0.036 C 
HETATM   19  C   UNL     1     -46.680 -51.439  14.256  1.00  0.00     0.029 C 
HETATM   20  C   UNL     1     -46.756 -52.849  14.804  1.00  0.00     0.168 C 
HETATM   21  O   UNL     1     -45.651 -53.558  14.238  1.00  0.00    -0.384 OA
ENDBRANCH  16  17
ENDBRANCH  15  16
ENDBRANCH  14  15
ENDBRANCH  13  14
ENDBRANCH   1  13
TORSDOF 6
ENDMDL
MODEL 2
REMARK VINA RESULT:      -5.4      1.530      2.169
REMARK  6 active torsions:
REMARK  status: ('A' for Active; 'I' for Inactive)
REMARK    1  A    between atoms: C_8  and  N_9 
REMARK    2  A    between atoms: N_9  and  C_10 
REMARK    3  A    between atoms: C_10  and  C_11 
REMARK    4  A    between atoms: C_11  and  O_12 
REMARK    5  A    between atoms: O_12  and  C_13 
REMARK    6  A    between atoms: C_13  and  C_14 
ROOT
HETATM    1  N   UNL     1     -41.548 -49.517  11.108  1.00  0.00    -0.373 N 
HETATM    2  H   UNL     1     -40.738 -49.875  10.615  1.00  0.00     0.161 HD
ENDROOT
BRANCH   1   3
HETATM    3  C   UNL     1     -41.950 -48.293  10.634  1.00  0.00     0.124 A 
HETATM    4  C   UNL     1     -41.243 -47.071  10.678  1.00  0.00     0.049 A 
HETATM    5  N   UNL     1     -41.764 -45.909  10.188  1.00  0.00    -0.365 N 
HETATM    6  C   UNL     1     -39.869 -46.903  11.244  1.00  0.00     0.072 C 
HETATM    7  C   UNL     1     -43.000 -45.979   9.667  1.00  0.00     0.112 A 
ATOM      8  HN  UNL     1     -41.242 -45.032  10.216  1.00  0.00     0.165 HD
HETATM    9  C   UNL     1     -43.714 -47.161   9.616  1.00  0.00     0.022 A 
HETATM   10  C   UNL     1     -45.088 -47.194   9.021  1.00  0.00     0.069 C 
HETATM   11  N   UNL     1     -43.196 -48.323  10.094  1.00  0.00    -0.344 N 
ATOM     12  HN  UNL     1     -43.728 -49.193  10.050  1.00  0.00     0.167 HD
ENDBRANCH   1   3
BRANCH   1  13
HETATM   13  C   UNL     1     -42.029 -50.173  12.301  1.00  0.00     0.147 C 
BRANCH  13  14
HETATM   14  C   UNL     1     -42.006 -51.702  12.256  1.00  0.00     0.187 C 
BRANCH  14  15
HETATM   15  O   UNL     1     -43.099 -52.138  13.076  1.00  0.00    -0.387 OA
BRANCH  15  16
HETATM   16  C   UNL     1     -43.928 -53.109  12.447  1.00  0.00     0.199 C 
BRANCH  16  17
HETATM   17  C   UNL     1     -45.386 -52.859  12.837  1.00  0.00     0.145 C 
HETATM   18  C   UNL     1     -45.705 -51.409  13.183  1.00  0.00     0.036 C 
HETATM   19  C   UNL     1     -46.698 -51.496  14.325  1.00  0.00     0.029 C 
HETATM   20  C   UNL     1     -46.878 -52.979  14.575  1.00  0.00     0.168 C 
HETATM   21  O   UNL     1     -45.739 -53.623  14.000  1.00  0.00    -0.384 OA
ENDBRANCH  16  17
ENDBRANCH  15  16
ENDBRANCH  14  15
ENDBRANCH  13  14
ENDBRANCH   1  13
TORSDOF 6
ENDMDL
MODEL 3
REMARK VINA RESULT:      -5.3      2.735      3.912
REMARK  6 active torsions:
REMARK  status: ('A' for Active; 'I' for Inactive)
REMARK    1  A    between atoms: C_8  and  N_9 
REMARK    2  A    between atoms: N_9  and  C_10 
REMARK    3  A    between atoms: C_10  and  C_11 
REMARK    4  A    between atoms: C_11  and  O_12 
REMARK    5  A    between atoms: O_12  and  C_13 
REMARK    6  A    between atoms: C_13  and  C_14 
ROOT
HETATM    1  N   UNL     1     -40.518 -48.822  11.106  1.00  0.00    -0.373 N 
HETATM    2  H   UNL     1     -39.761 -48.189  11.337  1.00  0.00     0.161 HD
ENDROOT
BRANCH   1   3
HETATM    3  C   UNL     1     -41.669 -48.157  10.762  1.00  0.00     0.124 A 
HETATM    4  C   UNL     1     -42.523 -47.409  11.603  1.00  0.00     0.049 A 
HETATM    5  N   UNL     1     -43.658 -46.809  11.143  1.00  0.00    -0.365 N 
HETATM    6  C   UNL     1     -42.292 -47.181  13.063  1.00  0.00     0.072 C 
HETATM    7  C   UNL     1     -43.936 -46.974   9.839  1.00  0.00     0.112 A 
ATOM      8  HN  UNL     1     -44.264 -46.263  11.756  1.00  0.00     0.165 HD
HETATM    9  C   UNL     1     -43.120 -47.703   8.996  1.00  0.00     0.022 A 
HETATM   10  C   UNL     1     -43.466 -47.857   7.547  1.00  0.00     0.069 C 
HETATM   11  N   UNL     1     -41.983 -48.296   9.448  1.00  0.00    -0.344 N 
ATOM     12  HN  UNL     1     -41.383 -48.830   8.819  1.00  0.00     0.167 HD
ENDBRANCH   1   3
BRANCH   1  13
HETATM   13  C   UNL     1     -40.388 -50.240  11.345  1.00  0.00     0.147 C 
BRANCH  13  14
HETATM   14  C   UNL     1     -39.439 -50.623  12.482  1.00  0.00     0.187 C 
BRANCH  14  15
HETATM   15  O   UNL     1     -39.537 -52.047  12.616  1.00  0.00    -0.387 OA
BRANCH  15  16
HETATM   16  C   UNL     1     -40.801 -52.568  12.222  1.00  0.00     0.199 C 
BRANCH  16  17
HETATM   17  C   UNL     1     -41.121 -53.809  13.058  1.00  0.00     0.145 C 
HETATM   18  C   UNL     1     -42.609 -54.043  13.291  1.00  0.00     0.036 C 
HETATM   19  C   UNL     1     -42.697 -54.574  14.708  1.00  0.00     0.029 C 
HETATM   20  C   UNL     1     -41.267 -54.599  15.206  1.00  0.00     0.168 C 
HETATM   21  O   UNL     1     -40.534 -53.706  14.364  1.00  0.00    -0.384 OA
ENDBRANCH  16  17
ENDBRANCH  15  16
ENDBRANCH  14  15
ENDBRANCH  13  14
ENDBRANCH   1  13
TORSDOF 6
ENDMDL
MODEL 4
REMARK VINA RESULT:      -5.1      1.383      1.971
REMARK  6 active torsions:
REMARK  status: ('A' for Active; 'I' for Inactive)
REMARK    1  A    between atoms: C_8  and  N_9 
REMARK    2  A    between atoms: N_9  and  C_10 
REMARK    3  A    between atoms: C_10  and  C_11 
REMARK    4  A    between atoms: C_11  and  O_12 
REMARK    5  A    between atoms: O_12  and  C_13 
REMARK    6  A    between atoms: C_13  and  C_14 
ROOT
HETATM    1  N   UNL     1     -40.695 -51.334  11.348  1.00  0.00    -0.373 N 
HETATM    2  H   UNL     1     -40.797 -51.753  10.431  1.00  0.00     0.161 HD
ENDROOT
BRANCH   1   3
HETATM    3  C   UNL     1     -40.655 -49.962  11.295  1.00  0.00     0.124 A 
HETATM    4  C   UNL     1     -39.528 -49.122  11.438  1.00  0.00     0.049 A 
HETATM    5  N   UNL     1     -39.621 -47.762  11.387  1.00  0.00    -0.365 N 
HETATM    6  C   UNL     1     -38.128 -49.604  11.651  1.00  0.00     0.072 C 
HETATM    7  C   UNL     1     -40.851 -47.253  11.203  1.00  0.00     0.112 A 
ATOM      8  HN  UNL     1     -38.801 -47.163  11.482  1.00  0.00     0.165 HD
HETATM    9  C   UNL     1     -41.969 -48.052  11.064  1.00  0.00     0.022 A 
HETATM   10  C   UNL     1     -43.320 -47.441  10.857  1.00  0.00     0.069 C 
HETATM   11  N   UNL     1     -41.880 -49.408  11.106  1.00  0.00    -0.344 N 
ATOM     12  HN  UNL     1     -42.710 -49.993  10.999  1.00  0.00     0.167 HD
ENDBRANCH   1   3
BRANCH   1  13
HETATM   13  C   UNL     1     -40.413 -52.155  12.502  1.00  0.00     0.147 C 
BRANCH  13  14
HETATM   14  C   UNL     1     -41.019 -51.661  13.816  1.00  0.00     0.187 C 
BRANCH  14  15
HETATM   15  O   UNL     1     -41.176 -52.825  14.640  1.00  0.00    -0.387 OA
BRANCH  15  16
HETATM   16  C   UNL     1     -41.827 -53.904  13.980  1.00  0.00     0.199 C 
BRANCH  16  17
HETATM   17  C   UNL     1     -43.339 -53.777  14.171  1.00  0.00     0.145 C 
HETATM   18  C   UNL     1     -44.034 -55.073  14.573  1.00  0.00     0.036 C 
HETATM   19  C   UNL     1     -45.361 -55.040  13.841  1.00  0.00     0.029 C 
HETATM   20  C   UNL     1     -45.344 -53.744  13.057  1.00  0.00     0.168 C 
HETATM   21  O   UNL     1     -43.972 -53.358  12.953  1.00  0.00    -0.384 OA
ENDBRANCH  16  17
ENDBRANCH  15  16
ENDBRANCH  14  15
ENDBRANCH  13  14
ENDBRANCH   1  13
TORSDOF 6
ENDMDL
MODEL 5
REMARK VINA RESULT:      -5.0      2.486      5.676
REMARK  6 active torsions:
REMARK  status: ('A' for Active; 'I' for Inactive)
REMARK    1  A    between atoms: C_8  and  N_9 
REMARK    2  A    between atoms: N_9  and  C_10 
REMARK    3  A    between atoms: C_10  and  C_11 
REMARK    4  A    between atoms: C_11  and  O_12 
REMARK    5  A    between atoms: O_12  and  C_13 
REMARK    6  A    between atoms: C_13  and  C_14 
ROOT
HETATM    1  N   UNL     1     -42.241 -52.310  11.675  1.00  0.00    -0.373 N 
HETATM    2  H   UNL     1     -42.562 -52.658  10.779  1.00  0.00     0.161 HD
ENDROOT
BRANCH   1   3
HETATM    3  C   UNL     1     -43.100 -52.630  12.698  1.00  0.00     0.124 A 
HETATM    4  C   UNL     1     -42.878 -53.525  13.767  1.00  0.00     0.049 A 
HETATM    5  N   UNL     1     -43.825 -53.777  14.716  1.00  0.00    -0.365 N 
HETATM    6  C   UNL     1     -41.609 -54.284  13.993  1.00  0.00     0.072 C 
HETATM    7  C   UNL     1     -44.997 -53.135  14.578  1.00  0.00     0.112 A 
ATOM      8  HN  UNL     1     -43.653 -54.419  15.491  1.00  0.00     0.165 HD
HETATM    9  C   UNL     1     -45.240 -52.257  13.539  1.00  0.00     0.022 A 
HETATM   10  C   UNL     1     -46.560 -51.560  13.426  1.00  0.00     0.069 C 
HETATM   11  N   UNL     1     -44.296 -51.997  12.596  1.00  0.00    -0.344 N 
ATOM     12  HN  UNL     1     -44.482 -51.345  11.833  1.00  0.00     0.167 HD
ENDBRANCH   1   3
BRANCH   1  13
HETATM   13  C   UNL     1     -41.120 -51.404  11.750  1.00  0.00     0.147 C 
BRANCH  13  14
HETATM   14  C   UNL     1     -41.197 -50.363  12.868  1.00  0.00     0.187 C 
BRANCH  14  15
HETATM   15  O   UNL     1     -41.886 -49.235  12.310  1.00  0.00    -0.387 OA
BRANCH  15  16
HETATM   16  C   UNL     1     -41.365 -48.818  11.053  1.00  0.00     0.199 C 
BRANCH  16  17
HETATM   17  C   UNL     1     -42.294 -47.765  10.445  1.00  0.00     0.145 C 
HETATM   18  C   UNL     1     -43.690 -47.730  11.055  1.00  0.00     0.036 C 
HETATM   19  C   UNL     1     -44.612 -47.440   9.888  1.00  0.00     0.029 C 
HETATM   20  C   UNL     1     -43.700 -47.341   8.683  1.00  0.00     0.168 C 
HETATM   21  O   UNL     1     -42.488 -48.007   9.044  1.00  0.00    -0.384 OA
ENDBRANCH  16  17
ENDBRANCH  15  16
ENDBRANCH  14  15
ENDBRANCH  13  14
ENDBRANCH   1  13
TORSDOF 6
ENDMDL
MODEL 6
REMARK VINA RESULT:      -4.9      1.172      2.339
REMARK  6 active torsions:
REMARK  status: ('A' for Active; 'I' for Inactive)
REMARK    1  A    between atoms: C_8  and  N_9 
REMARK    2  A    between atoms: N_9  and  C_10 
REMARK    3  A    between atoms: C_10  and  C_11 
REMARK    4  A    between atoms: C_11  and  O_12 
REMARK    5  A    between atoms: O_12  and  C_13 
REMARK    6  A    between atoms: C_13  and  C_14 
ROOT
HETATM    1  N   UNL     1     -41.867 -51.641  11.788  1.00  0.00    -0.373 N 
HETATM    2  H   UNL     1     -42.695 -51.515  11.217  1.00  0.00     0.161 HD
ENDROOT
BRANCH   1   3
HETATM    3  C   UNL     1     -41.109 -50.500  11.868  1.00  0.00     0.124 A 
HETATM    4  C   UNL     1     -41.544 -49.188  12.156  1.00  0.00     0.049 A 
HETATM    5  N   UNL     1     -40.689 -48.125  12.185  1.00  0.00    -0.365 N 
HETATM    6  C   UNL     1     -42.957 -48.808  12.465  1.00  0.00     0.072 C 
HETATM    7  C   UNL     1     -39.400 -48.386  11.911  1.00  0.00     0.112 A 
ATOM      8  HN  UNL     1     -41.011 -47.182  12.403  1.00  0.00     0.165 HD
HETATM    9  C   UNL     1     -38.949 -49.660  11.622  1.00  0.00     0.022 A 
HETATM   10  C   UNL     1     -37.502 -49.906  11.328  1.00  0.00     0.069 C 
HETATM   11  N   UNL     1     -39.796 -50.724  11.601  1.00  0.00    -0.344 N 
ATOM     12  HN  UNL     1     -39.455 -51.662  11.391  1.00  0.00     0.167 HD
ENDBRANCH   1   3
BRANCH   1  13
HETATM   13  C   UNL     1     -41.487 -52.956  12.247  1.00  0.00     0.147 C 
BRANCH  13  14
HETATM   14  C   UNL     1     -41.683 -53.204  13.744  1.00  0.00     0.187 C 
BRANCH  14  15
HETATM   15  O   UNL     1     -43.064 -52.927  14.014  1.00  0.00    -0.387 OA
BRANCH  15  16
HETATM   16  C   UNL     1     -43.950 -53.923  13.518  1.00  0.00     0.199 C 
BRANCH  16  17
HETATM   17  C   UNL     1     -45.384 -53.391  13.558  1.00  0.00     0.145 C 
HETATM   18  C   UNL     1     -45.506 -51.893  13.303  1.00  0.00     0.036 C 
HETATM   19  C   UNL     1     -46.615 -51.434  14.229  1.00  0.00     0.029 C 
HETATM   20  C   UNL     1     -47.051 -52.684  14.966  1.00  0.00     0.168 C 
HETATM   21  O   UNL     1     -45.973 -53.615  14.847  1.00  0.00    -0.384 OA
ENDBRANCH  16  17
ENDBRANCH  15  16
ENDBRANCH  14  15
ENDBRANCH  13  14
ENDBRANCH   1  13
TORSDOF 6
ENDMDL
MODEL 7
REMARK VINA RESULT:      -4.9      1.918      3.281
REMARK  6 active torsions:
REMARK  status: ('A' for Active; 'I' for Inactive)
REMARK    1  A    between atoms: C_8  and  N_9 
REMARK    2  A    between atoms: N_9  and  C_10 
REMARK    3  A    between atoms: C_10  and  C_11 
REMARK    4  A    between atoms: C_11  and  O_12 
REMARK    5  A    between atoms: O_12  and  C_13 
REMARK    6  A    between atoms: C_13  and  C_14 
ROOT
HETATM    1  N   UNL     1     -42.147 -49.578  12.683  1.00  0.00    -0.373 N 
HETATM    2  H   UNL     1     -41.512 -50.343  12.481  1.00  0.00     0.161 HD
ENDROOT
BRANCH   1   3
HETATM    3  C   UNL     1     -42.168 -48.638  11.682  1.00  0.00     0.124 A 
HETATM    4  C   UNL     1     -41.093 -47.855  11.205  1.00  0.00     0.049 A 
HETATM    5  N   UNL     1     -41.248 -46.932  10.212  1.00  0.00    -0.365 N 
HETATM    6  C   UNL     1     -39.688 -47.940  11.710  1.00  0.00     0.072 C 
HETATM    7  C   UNL     1     -42.486 -46.794   9.711  1.00  0.00     0.112 A 
ATOM      8  HN  UNL     1     -40.464 -46.377   9.868  1.00  0.00     0.165 HD
HETATM    9  C   UNL     1     -43.554 -47.546  10.162  1.00  0.00     0.022 A 
HETATM   10  C   UNL     1     -44.918 -47.361   9.570  1.00  0.00     0.069 C 
HETATM   11  N   UNL     1     -43.404 -48.472  11.145  1.00  0.00    -0.344 N 
ATOM     12  HN  UNL     1     -44.197 -49.026  11.471  1.00  0.00     0.167 HD
ENDBRANCH   1   3
BRANCH   1  13
HETATM   13  C   UNL     1     -42.753 -49.454  13.987  1.00  0.00     0.147 C 
BRANCH  13  14
HETATM   14  C   UNL     1     -43.952 -50.370  14.238  1.00  0.00     0.187 C 
BRANCH  14  15
HETATM   15  O   UNL     1     -44.208 -51.035  12.993  1.00  0.00    -0.387 OA
BRANCH  15  16
HETATM   16  C   UNL     1     -44.466 -52.427  13.135  1.00  0.00     0.199 C 
BRANCH  16  17
HETATM   17  C   UNL     1     -43.247 -53.219  12.656  1.00  0.00     0.145 C 
HETATM   18  C   UNL     1     -42.485 -53.933  13.767  1.00  0.00     0.036 C 
HETATM   19  C   UNL     1     -41.027 -53.814  13.370  1.00  0.00     0.029 C 
HETATM   20  C   UNL     1     -41.037 -53.032  12.072  1.00  0.00     0.168 C 
HETATM   21  O   UNL     1     -42.294 -52.352  12.025  1.00  0.00    -0.384 OA
ENDBRANCH  16  17
ENDBRANCH  15  16
ENDBRANCH  14  15
ENDBRANCH  13  14
ENDBRANCH   1  13
TORSDOF 6
ENDMDL
MODEL 8
REMARK VINA RESULT:      -4.7      3.900      7.081
REMARK  6 active torsions:
REMARK  status: ('A' for Active; 'I' for Inactive)
REMARK    1  A    between atoms: C_8  and  N_9 
REMARK    2  A    between atoms: N_9  and  C_10 
REMARK    3  A    between atoms: C_10  and  C_11 
REMARK    4  A    between atoms: C_11  and  O_12 
REMARK    5  A    between atoms: O_12  and  C_13 
REMARK    6  A    between atoms: C_13  and  C_14 
ROOT
HETATM    1  N   UNL     1     -40.876 -48.978  10.405  1.00  0.00    -0.373 N 
HETATM    2  H   UNL     1     -40.782 -49.282   9.443  1.00  0.00     0.161 HD
ENDROOT
BRANCH   1   3
HETATM    3  C   UNL     1     -40.609 -49.985  11.299  1.00  0.00     0.124 A 
HETATM    4  C   UNL     1     -39.378 -50.286  11.924  1.00  0.00     0.049 A 
HETATM    5  N   UNL     1     -39.233 -51.335  12.784  1.00  0.00    -0.365 N 
HETATM    6  C   UNL     1     -38.114 -49.509  11.733  1.00  0.00     0.072 C 
HETATM    7  C   UNL     1     -40.326 -52.085  13.002  1.00  0.00     0.112 A 
ATOM      8  HN  UNL     1     -38.342 -51.539  13.237  1.00  0.00     0.165 HD
HETATM    9  C   UNL     1     -41.540 -51.815  12.401  1.00  0.00     0.022 A 
HETATM   10  C   UNL     1     -42.734 -52.675  12.678  1.00  0.00     0.069 C 
HETATM   11  N   UNL     1     -41.692 -50.765  11.550  1.00  0.00    -0.344 N 
ATOM     12  HN  UNL     1     -42.592 -50.570  11.113  1.00  0.00     0.167 HD
ENDBRANCH   1   3
BRANCH   1  13
HETATM   13  C   UNL     1     -41.442 -47.687  10.715  1.00  0.00     0.147 C 
BRANCH  13  14
HETATM   14  C   UNL     1     -40.424 -46.576  10.977  1.00  0.00     0.187 C 
BRANCH  14  15
HETATM   15  O   UNL     1     -41.112 -45.343  10.724  1.00  0.00    -0.387 OA
BRANCH  15  16
HETATM   16  C   UNL     1     -40.269 -44.198  10.798  1.00  0.00     0.199 C 
BRANCH  16  17
HETATM   17  C   UNL     1     -41.078 -43.007  11.317  1.00  0.00     0.145 C 
HETATM   18  C   UNL     1     -41.631 -43.188  12.726  1.00  0.00     0.036 C 
HETATM   19  C   UNL     1     -42.994 -42.527  12.691  1.00  0.00     0.029 C 
HETATM   20  C   UNL     1     -43.148 -42.022  11.272  1.00  0.00     0.168 C 
HETATM   21  O   UNL     1     -42.217 -42.764  10.480  1.00  0.00    -0.384 OA
ENDBRANCH  16  17
ENDBRANCH  15  16
ENDBRANCH  14  15
ENDBRANCH  13  14
ENDBRANCH   1  13
TORSDOF 6
ENDMDL
MODEL 9
REMARK VINA RESULT:      -4.7      2.744      6.694
REMARK  6 active torsions:
REMARK  status: ('A' for Active; 'I' for Inactive)
REMARK    1  A    between atoms: C_8  and  N_9 
REMARK    2  A    between atoms: N_9  and  C_10 
REMARK    3  A    between atoms: C_10  and  C_11 
REMARK    4  A    between atoms: C_11  and  O_12 
REMARK    5  A    between atoms: O_12  and  C_13 
REMARK    6  A    between atoms: C_13  and  C_14 
ROOT
HETATM    1  N   UNL     1     -43.048 -52.524  11.829  1.00  0.00    -0.373 N 
HETATM    2  H   UNL     1     -43.341 -52.628  10.865  1.00  0.00     0.161 HD
ENDROOT
BRANCH   1   3
HETATM    3  C   UNL     1     -43.857 -53.212  12.699  1.00  0.00     0.124 A 
HETATM    4  C   UNL     1     -45.261 -53.131  12.826  1.00  0.00     0.049 A 
HETATM    5  N   UNL     1     -45.953 -53.855  13.751  1.00  0.00    -0.365 N 
HETATM    6  C   UNL     1     -46.144 -52.270  11.979  1.00  0.00     0.072 C 
HETATM    7  C   UNL     1     -45.227 -54.650  14.555  1.00  0.00     0.112 A 
ATOM      8  HN  UNL     1     -46.969 -53.797  13.829  1.00  0.00     0.165 HD
HETATM    9  C   UNL     1     -43.852 -54.745  14.454  1.00  0.00     0.022 A 
HETATM   10  C   UNL     1     -43.083 -55.648  15.368  1.00  0.00     0.069 C 
HETATM   11  N   UNL     1     -43.159 -54.031  13.528  1.00  0.00    -0.344 N 
ATOM     12  HN  UNL     1     -42.144 -54.108  13.457  1.00  0.00     0.167 HD
ENDBRANCH   1   3
BRANCH   1  13
HETATM   13  C   UNL     1     -42.024 -51.570  12.184  1.00  0.00     0.147 C 
BRANCH  13  14
HETATM   14  C   UNL     1     -42.482 -50.431  13.097  1.00  0.00     0.187 C 
BRANCH  14  15
HETATM   15  O   UNL     1     -42.536 -49.260  12.271  1.00  0.00    -0.387 OA
BRANCH  15  16
HETATM   16  C   UNL     1     -41.460 -49.169  11.344  1.00  0.00     0.199 C 
BRANCH  16  17
HETATM   17  C   UNL     1     -41.732 -48.026  10.363  1.00  0.00     0.145 C 
HETATM   18  C   UNL     1     -41.187 -46.674  10.808  1.00  0.00     0.036 C 
HETATM   19  C   UNL     1     -42.231 -45.672  10.356  1.00  0.00     0.029 C 
HETATM   20  C   UNL     1     -43.311 -46.504   9.696  1.00  0.00     0.168 C 
HETATM   21  O   UNL     1     -43.142 -47.838  10.181  1.00  0.00    -0.384 OA
ENDBRANCH  16  17
ENDBRANCH  15  16
ENDBRANCH  14  15
ENDBRANCH  13  14
ENDBRANCH   1  13
TORSDOF 6
ENDMDL
