MODEL 1
REMARK VINA RESULT:      -6.7      0.000      0.000
REMARK  4 active torsions:
REMARK  status: ('A' for Active; 'I' for Inactive)
REMARK    1  A    between atoms: O_1  and  C_2 
REMARK    2  A    between atoms: C_2  and  C_3 
REMARK    3  A    between atoms: C_2  and  C_14 
REMARK    4  A    between atoms: C_3  and  N_4 
ROOT
HETATM    1  C   UNL     1     -40.824 -53.413  12.881  1.00  0.00     0.172 C 
ENDROOT
BRANCH   1   2
HETATM    2  O   UNL     1     -40.579 -53.495  11.473  1.00  0.00    -0.389 OA
HETATM    3  H   UNL     1     -41.427 -53.679  11.032  1.00  0.00     0.210 HD
ENDBRANCH   1   2
BRANCH   1   4
HETATM    4  C   UNL     1     -40.357 -52.062  13.455  1.00  0.00     0.166 C 
BRANCH   4   5
HETATM    5  N   UNL     1     -40.289 -50.975  12.493  1.00  0.00    -0.338 N 
HETATM    6  C   UNL     1     -39.193 -50.662  11.736  1.00  0.00     0.184 A 
HETATM    7  N   UNL     1     -39.408 -49.623  10.965  1.00  0.00    -0.350 N 
HETATM    8  C   UNL     1     -40.690 -49.230  11.248  1.00  0.00     0.060 A 
ATOM      9  HN  UNL     1     -38.761 -49.200  10.300  1.00  0.00     0.166 HD
HETATM   10  C   UNL     1     -41.425 -48.160  10.715  1.00  0.00     0.032 A 
HETATM   11  C   UNL     1     -41.269 -50.051  12.215  1.00  0.00     0.062 A 
HETATM   12  C   UNL     1     -42.723 -47.933  11.184  1.00  0.00     0.002 A 
HETATM   13  C   UNL     1     -43.283 -48.760  12.158  1.00  0.00     0.002 A 
HETATM   14  C   UNL     1     -42.571 -49.842  12.692  1.00  0.00     0.032 A 
ENDBRANCH   4   5
ENDBRANCH   1   4
BRANCH   1  15
HETATM   15  C   UNL     1     -42.273 -53.717  13.179  1.00  0.00     0.013 A 
HETATM   16  C   UNL     1     -43.321 -53.177  12.420  1.00  0.00     0.055 A 
HETATM   17  C   UNL     1     -44.643 -53.448  12.765  1.00  0.00     0.117 A 
HETATM   18  F   UNL     1     -45.636 -52.919  12.039  1.00  0.00    -0.206 F 
HETATM   19  C   UNL     1     -44.950 -54.255  13.855  1.00  0.00     0.045 A 
HETATM   20  C   UNL     1     -43.919 -54.802  14.614  1.00  0.00     0.046 A 
HETATM   21  C   UNL     1     -42.596 -54.528  14.274  1.00  0.00     0.125 A 
HETATM   22  F   UNL     1     -41.615 -55.044  15.026  1.00  0.00    -0.205 F 
ENDBRANCH   1  15
TORSDOF 4
ENDMDL
MODEL 2
REMARK VINA RESULT:      -6.4      1.743      3.070
REMARK  4 active torsions:
REMARK  status: ('A' for Active; 'I' for Inactive)
REMARK    1  A    between atoms: O_1  and  C_2 
REMARK    2  A    between atoms: C_2  and  C_3 
REMARK    3  A    between atoms: C_2  and  C_14 
REMARK    4  A    between atoms: C_3  and  N_4 
ROOT
HETATM    1  C   UNL     1     -42.731 -52.145  12.884  1.00  0.00     0.172 C 
ENDROOT
BRANCH   1   2
HETATM    2  O   UNL     1     -42.575 -52.599  11.535  1.00  0.00    -0.389 OA
HETATM    3  H   UNL     1     -41.800 -53.188  11.505  1.00  0.00     0.210 HD
ENDBRANCH   1   2
BRANCH   1   4
HETATM    4  C   UNL     1     -42.407 -50.644  13.013  1.00  0.00     0.166 C 
BRANCH   4   5
HETATM    5  N   UNL     1     -41.200 -50.215  12.328  1.00  0.00    -0.338 N 
HETATM    6  C   UNL     1     -41.167 -49.396  11.232  1.00  0.00     0.184 A 
HETATM    7  N   UNL     1     -39.942 -49.186  10.812  1.00  0.00    -0.350 N 
HETATM    8  C   UNL     1     -39.146 -49.916  11.656  1.00  0.00     0.060 A 
ATOM      9  HN  UNL     1     -39.647 -48.606  10.026  1.00  0.00     0.166 HD
HETATM   10  C   UNL     1     -37.751 -50.060  11.652  1.00  0.00     0.032 A 
HETATM   11  C   UNL     1     -39.907 -50.586  12.614  1.00  0.00     0.062 A 
HETATM   12  C   UNL     1     -37.155 -50.892  12.606  1.00  0.00     0.002 A 
HETATM   13  C   UNL     1     -37.933 -51.561  13.551  1.00  0.00     0.002 A 
HETATM   14  C   UNL     1     -39.327 -51.419  13.581  1.00  0.00     0.032 A 
ENDBRANCH   4   5
ENDBRANCH   1   4
BRANCH   1  15
HETATM   15  C   UNL     1     -44.103 -52.504  13.403  1.00  0.00     0.013 A 
HETATM   16  C   UNL     1     -45.115 -51.547  13.562  1.00  0.00     0.055 A 
HETATM   17  C   UNL     1     -46.349 -51.919  14.091  1.00  0.00     0.117 A 
HETATM   18  F   UNL     1     -47.305 -50.995  14.248  1.00  0.00    -0.206 F 
HETATM   19  C   UNL     1     -46.604 -53.234  14.464  1.00  0.00     0.045 A 
HETATM   20  C   UNL     1     -45.609 -54.196  14.306  1.00  0.00     0.046 A 
HETATM   21  C   UNL     1     -44.372 -53.825  13.783  1.00  0.00     0.125 A 
HETATM   22  F   UNL     1     -43.418 -54.757  13.656  1.00  0.00    -0.205 F 
ENDBRANCH   1  15
TORSDOF 4
ENDMDL
MODEL 3
REMARK VINA RESULT:      -6.3      3.131      5.816
REMARK  4 active torsions:
REMARK  status: ('A' for Active; 'I' for Inactive)
REMARK    1  A    between atoms: O_1  and  C_2 
REMARK    2  A    between atoms: C_2  and  C_3 
REMARK    3  A    between atoms: C_2  and  C_14 
REMARK    4  A    between atoms: C_3  and  N_4 
ROOT
HETATM    1  C   UNL     1     -40.978 -52.113  12.193  1.00  0.00     0.172 C 
ENDROOT
BRANCH   1   2
HETATM    2  O   UNL     1     -40.506 -53.290  11.528  1.00  0.00    -0.389 OA
HETATM    3  H   UNL     1     -40.546 -54.028  12.161  1.00  0.00     0.210 HD
ENDBRANCH   1   2
BRANCH   1   4
HETATM    4  C   UNL     1     -41.775 -52.468  13.464  1.00  0.00     0.166 C 
BRANCH   4   5
HETATM    5  N   UNL     1     -43.218 -52.498  13.297  1.00  0.00    -0.338 N 
HETATM    6  C   UNL     1     -43.873 -53.010  12.211  1.00  0.00     0.184 A 
HETATM    7  N   UNL     1     -45.175 -52.890  12.320  1.00  0.00    -0.350 N 
HETATM    8  C   UNL     1     -45.374 -52.253  13.518  1.00  0.00     0.060 A 
ATOM      9  HN  UNL     1     -45.884 -53.203  11.657  1.00  0.00     0.166 HD
HETATM   10  C   UNL     1     -46.579 -51.864  14.123  1.00  0.00     0.032 A 
HETATM   11  C   UNL     1     -44.163 -51.980  14.152  1.00  0.00     0.062 A 
HETATM   12  C   UNL     1     -46.532 -51.192  15.349  1.00  0.00     0.002 A 
HETATM   13  C   UNL     1     -45.310 -50.920  15.965  1.00  0.00     0.002 A 
HETATM   14  C   UNL     1     -44.097 -51.313  15.383  1.00  0.00     0.032 A 
ENDBRANCH   4   5
ENDBRANCH   1   4
BRANCH   1  15
HETATM   15  C   UNL     1     -39.834 -51.163  12.454  1.00  0.00     0.013 A 
HETATM   16  C   UNL     1     -38.954 -51.332  13.533  1.00  0.00     0.055 A 
HETATM   17  C   UNL     1     -37.943 -50.401  13.761  1.00  0.00     0.117 A 
HETATM   18  F   UNL     1     -37.114 -50.567  14.799  1.00  0.00    -0.206 F 
HETATM   19  C   UNL     1     -37.783 -49.297  12.930  1.00  0.00     0.045 A 
HETATM   20  C   UNL     1     -38.648 -49.120  11.852  1.00  0.00     0.046 A 
HETATM   21  C   UNL     1     -39.663 -50.047  11.627  1.00  0.00     0.125 A 
HETATM   22  F   UNL     1     -40.499 -49.852  10.598  1.00  0.00    -0.205 F 
ENDBRANCH   1  15
TORSDOF 4
ENDMDL
MODEL 4
REMARK VINA RESULT:      -6.3      1.535      1.786
REMARK  4 active torsions:
REMARK  status: ('A' for Active; 'I' for Inactive)
REMARK    1  A    between atoms: O_1  and  C_2 
REMARK    2  A    between atoms: C_2  and  C_3 
REMARK    3  A    between atoms: C_2  and  C_14 
REMARK    4  A    between atoms: C_3  and  N_4 
ROOT
HETATM    1  C   UNL     1     -42.803 -52.938  12.890  1.00  0.00     0.172 C 
ENDROOT
BRANCH   1   2
HETATM    2  O   UNL     1     -42.908 -52.840  11.465  1.00  0.00    -0.389 OA
HETATM    3  H   UNL     1     -43.738 -53.271  11.197  1.00  0.00     0.210 HD
ENDBRANCH   1   2
BRANCH   1   4
HETATM    4  C   UNL     1     -41.925 -51.812  13.468  1.00  0.00     0.166 C 
BRANCH   4   5
HETATM    5  N   UNL     1     -41.409 -50.870  12.489  1.00  0.00    -0.338 N 
HETATM    6  C   UNL     1     -40.218 -50.997  11.828  1.00  0.00     0.184 A 
HETATM    7  N   UNL     1     -39.998 -49.992  11.014  1.00  0.00    -0.350 N 
HETATM    8  C   UNL     1     -41.081 -49.165  11.168  1.00  0.00     0.060 A 
ATOM      9  HN  UNL     1     -39.195 -49.856  10.401  1.00  0.00     0.166 HD
HETATM   10  C   UNL     1     -41.353 -47.939  10.544  1.00  0.00     0.032 A 
HETATM   11  C   UNL     1     -41.982 -49.682  12.099  1.00  0.00     0.062 A 
HETATM   12  C   UNL     1     -42.523 -47.253  10.886  1.00  0.00     0.002 A 
HETATM   13  C   UNL     1     -43.408 -47.780  11.826  1.00  0.00     0.002 A 
HETATM   14  C   UNL     1     -43.161 -49.011  12.450  1.00  0.00     0.032 A 
ENDBRANCH   4   5
ENDBRANCH   1   4
BRANCH   1  15
HETATM   15  C   UNL     1     -44.177 -53.001  13.514  1.00  0.00     0.013 A 
HETATM   16  C   UNL     1     -45.071 -51.922  13.460  1.00  0.00     0.055 A 
HETATM   17  C   UNL     1     -46.309 -52.011  14.093  1.00  0.00     0.117 A 
HETATM   18  F   UNL     1     -47.152 -50.972  14.043  1.00  0.00    -0.206 F 
HETATM   19  C   UNL     1     -46.684 -53.160  14.781  1.00  0.00     0.045 A 
HETATM   20  C   UNL     1     -45.806 -54.241  14.838  1.00  0.00     0.046 A 
HETATM   21  C   UNL     1     -44.566 -54.152  14.211  1.00  0.00     0.125 A 
HETATM   22  F   UNL     1     -43.724 -55.191  14.291  1.00  0.00    -0.205 F 
ENDBRANCH   1  15
TORSDOF 4
ENDMDL
MODEL 5
REMARK VINA RESULT:      -6.3      2.660      4.004
REMARK  4 active torsions:
REMARK  status: ('A' for Active; 'I' for Inactive)
REMARK    1  A    between atoms: O_1  and  C_2 
REMARK    2  A    between atoms: C_2  and  C_3 
REMARK    3  A    between atoms: C_2  and  C_14 
REMARK    4  A    between atoms: C_3  and  N_4 
ROOT
HETATM    1  C   UNL     1     -40.582 -49.847  11.527  1.00  0.00     0.172 C 
ENDROOT
BRANCH   1   2
HETATM    2  O   UNL     1     -40.391 -50.059  10.124  1.00  0.00    -0.389 OA
HETATM    3  H   UNL     1     -39.672 -49.472   9.829  1.00  0.00     0.210 HD
ENDBRANCH   1   2
BRANCH   1   4
HETATM    4  C   UNL     1     -41.872 -49.051  11.805  1.00  0.00     0.166 C 
BRANCH   4   5
HETATM    5  N   UNL     1     -42.046 -47.859  10.993  1.00  0.00    -0.338 N 
HETATM    6  C   UNL     1     -41.085 -46.908  10.777  1.00  0.00     0.184 A 
HETATM    7  N   UNL     1     -41.521 -45.932  10.018  1.00  0.00    -0.350 N 
HETATM    8  C   UNL     1     -42.828 -46.248   9.747  1.00  0.00     0.060 A 
ATOM      9  HN  UNL     1     -41.001 -45.114   9.699  1.00  0.00     0.166 HD
HETATM   10  C   UNL     1     -43.770 -45.539   8.987  1.00  0.00     0.032 A 
HETATM   11  C   UNL     1     -43.194 -47.448  10.356  1.00  0.00     0.062 A 
HETATM   12  C   UNL     1     -45.067 -46.050   8.874  1.00  0.00     0.002 A 
HETATM   13  C   UNL     1     -45.418 -47.247   9.497  1.00  0.00     0.002 A 
HETATM   14  C   UNL     1     -44.487 -47.978  10.249  1.00  0.00     0.032 A 
ENDBRANCH   4   5
ENDBRANCH   1   4
BRANCH   1  15
HETATM   15  C   UNL     1     -40.524 -51.161  12.268  1.00  0.00     0.013 A 
HETATM   16  C   UNL     1     -41.538 -52.124  12.163  1.00  0.00     0.055 A 
HETATM   17  C   UNL     1     -41.462 -53.301  12.906  1.00  0.00     0.117 A 
HETATM   18  F   UNL     1     -42.440 -54.209  12.805  1.00  0.00    -0.206 F 
HETATM   19  C   UNL     1     -40.388 -53.547  13.754  1.00  0.00     0.045 A 
HETATM   20  C   UNL     1     -39.371 -52.601  13.864  1.00  0.00     0.046 A 
HETATM   21  C   UNL     1     -39.449 -51.421  13.127  1.00  0.00     0.125 A 
HETATM   22  F   UNL     1     -38.473 -50.512  13.259  1.00  0.00    -0.205 F 
ENDBRANCH   1  15
TORSDOF 4
ENDMDL
MODEL 6
REMARK VINA RESULT:      -6.2      1.750      2.699
REMARK  4 active torsions:
REMARK  status: ('A' for Active; 'I' for Inactive)
REMARK    1  A    between atoms: O_1  and  C_2 
REMARK    2  A    between atoms: C_2  and  C_3 
REMARK    3  A    between atoms: C_2  and  C_14 
REMARK    4  A    between atoms: C_3  and  N_4 
ROOT
HETATM    1  C   UNL     1     -41.042 -52.802  12.502  1.00  0.00     0.172 C 
ENDROOT
BRANCH   1   2
HETATM    2  O   UNL     1     -40.673 -53.446  11.278  1.00  0.00    -0.389 OA
HETATM    3  H   UNL     1     -41.203 -53.053  10.562  1.00  0.00     0.210 HD
ENDBRANCH   1   2
BRANCH   1   4
HETATM    4  C   UNL     1     -41.452 -51.335  12.264  1.00  0.00     0.166 C 
BRANCH   4   5
HETATM    5  N   UNL     1     -40.356 -50.381  12.279  1.00  0.00    -0.338 N 
HETATM    6  C   UNL     1     -39.946 -49.638  11.205  1.00  0.00     0.184 A 
HETATM    7  N   UNL     1     -38.924 -48.871  11.499  1.00  0.00    -0.350 N 
HETATM    8  C   UNL     1     -38.643 -49.141  12.814  1.00  0.00     0.060 A 
ATOM      9  HN  UNL     1     -38.443 -48.216  10.883  1.00  0.00     0.166 HD
HETATM   10  C   UNL     1     -37.635 -48.607  13.631  1.00  0.00     0.032 A 
HETATM   11  C   UNL     1     -39.517 -50.097  13.331  1.00  0.00     0.062 A 
HETATM   12  C   UNL     1     -37.522 -49.063  14.948  1.00  0.00     0.002 A 
HETATM   13  C   UNL     1     -38.400 -50.025  15.446  1.00  0.00     0.002 A 
HETATM   14  C   UNL     1     -39.423 -50.561  14.650  1.00  0.00     0.032 A 
ENDBRANCH   4   5
ENDBRANCH   1   4
BRANCH   1  15
HETATM   15  C   UNL     1     -42.100 -53.606  13.219  1.00  0.00     0.013 A 
HETATM   16  C   UNL     1     -43.442 -53.605  12.811  1.00  0.00     0.055 A 
HETATM   17  C   UNL     1     -44.391 -54.325  13.535  1.00  0.00     0.117 A 
HETATM   18  F   UNL     1     -45.671 -54.310  13.143  1.00  0.00    -0.206 F 
HETATM   19  C   UNL     1     -44.031 -55.056  14.662  1.00  0.00     0.045 A 
HETATM   20  C   UNL     1     -42.701 -55.069  15.075  1.00  0.00     0.046 A 
HETATM   21  C   UNL     1     -41.752 -54.345  14.356  1.00  0.00     0.125 A 
HETATM   22  F   UNL     1     -40.480 -54.350  14.777  1.00  0.00    -0.205 F 
ENDBRANCH   1  15
TORSDOF 4
ENDMDL
MODEL 7
REMARK VINA RESULT:      -6.2      3.209      5.213
REMARK  4 active torsions:
REMARK  status: ('A' for Active; 'I' for Inactive)
REMARK    1  A    between atoms: O_1  and  C_2 
REMARK    2  A    between atoms: C_2  and  C_3 
REMARK    3  A    between atoms: C_2  and  C_14 
REMARK    4  A    between atoms: C_3  and  N_4 
ROOT
HETATM    1  C   UNL     1     -42.794 -53.337  12.957  1.00  0.00     0.172 C 
ENDROOT
BRANCH   1   2
HETATM    2  O   UNL     1     -42.720 -52.698  11.678  1.00  0.00    -0.389 OA
HETATM    3  H   UNL     1     -43.282 -51.904  11.709  1.00  0.00     0.210 HD
ENDBRANCH   1   2
BRANCH   1   4
HETATM    4  C   UNL     1     -41.766 -52.746  13.941  1.00  0.00     0.166 C 
BRANCH   4   5
HETATM    5  N   UNL     1     -40.768 -53.683  14.425  1.00  0.00    -0.338 N 
HETATM    6  C   UNL     1     -39.582 -53.961  13.801  1.00  0.00     0.184 A 
HETATM    7  N   UNL     1     -38.882 -54.859  14.452  1.00  0.00    -0.350 N 
HETATM    8  C   UNL     1     -39.653 -55.196  15.534  1.00  0.00     0.060 A 
ATOM      9  HN  UNL     1     -37.963 -55.227  14.206  1.00  0.00     0.166 HD
HETATM   10  C   UNL     1     -39.390 -56.122  16.555  1.00  0.00     0.032 A 
HETATM   11  C   UNL     1     -40.853 -54.484  15.541  1.00  0.00     0.062 A 
HETATM   12  C   UNL     1     -40.352 -56.321  17.551  1.00  0.00     0.002 A 
HETATM   13  C   UNL     1     -41.549 -55.606  17.536  1.00  0.00     0.002 A 
HETATM   14  C   UNL     1     -41.825 -54.666  16.533  1.00  0.00     0.032 A 
ENDBRANCH   4   5
ENDBRANCH   1   4
BRANCH   1  15
HETATM   15  C   UNL     1     -44.209 -53.300  13.482  1.00  0.00     0.013 A 
HETATM   16  C   UNL     1     -45.013 -52.155  13.380  1.00  0.00     0.055 A 
HETATM   17  C   UNL     1     -46.296 -52.154  13.924  1.00  0.00     0.117 A 
HETATM   18  F   UNL     1     -47.052 -51.053  13.829  1.00  0.00    -0.206 F 
HETATM   19  C   UNL     1     -46.805 -53.277  14.567  1.00  0.00     0.045 A 
HETATM   20  C   UNL     1     -46.019 -54.422  14.670  1.00  0.00     0.046 A 
HETATM   21  C   UNL     1     -44.734 -54.423  14.133  1.00  0.00     0.125 A 
HETATM   22  F   UNL     1     -43.981 -55.526  14.258  1.00  0.00    -0.205 F 
ENDBRANCH   1  15
TORSDOF 4
ENDMDL
MODEL 8
REMARK VINA RESULT:      -6.0      2.973      5.713
REMARK  4 active torsions:
REMARK  status: ('A' for Active; 'I' for Inactive)
REMARK    1  A    between atoms: O_1  and  C_2 
REMARK    2  A    between atoms: C_2  and  C_3 
REMARK    3  A    between atoms: C_2  and  C_14 
REMARK    4  A    between atoms: C_3  and  N_4 
ROOT
HETATM    1  C   UNL     1     -41.784 -50.924  12.568  1.00  0.00     0.172 C 
ENDROOT
BRANCH   1   2
HETATM    2  O   UNL     1     -42.271 -49.924  11.667  1.00  0.00    -0.389 OA
HETATM    3  H   UNL     1     -41.921 -49.063  11.958  1.00  0.00     0.210 HD
ENDBRANCH   1   2
BRANCH   1   4
HETATM    4  C   UNL     1     -42.284 -52.327  12.174  1.00  0.00     0.166 C 
BRANCH   4   5
HETATM    5  N   UNL     1     -43.135 -52.975  13.158  1.00  0.00    -0.338 N 
HETATM    6  C   UNL     1     -42.834 -54.139  13.812  1.00  0.00     0.184 A 
HETATM    7  N   UNL     1     -43.790 -54.503  14.633  1.00  0.00    -0.350 N 
HETATM    8  C   UNL     1     -44.764 -53.548  14.491  1.00  0.00     0.060 A 
ATOM      9  HN  UNL     1     -43.806 -55.320  15.243  1.00  0.00     0.166 HD
HETATM   10  C   UNL     1     -46.011 -53.455  15.127  1.00  0.00     0.032 A 
HETATM   11  C   UNL     1     -44.389 -52.579  13.561  1.00  0.00     0.062 A 
HETATM   12  C   UNL     1     -46.859 -52.393  14.796  1.00  0.00     0.002 A 
HETATM   13  C   UNL     1     -46.471 -51.438  13.857  1.00  0.00     0.002 A 
HETATM   14  C   UNL     1     -45.223 -51.505  13.222  1.00  0.00     0.032 A 
ENDBRANCH   4   5
ENDBRANCH   1   4
BRANCH   1  15
HETATM   15  C   UNL     1     -40.281 -50.839  12.683  1.00  0.00     0.013 A 
HETATM   16  C   UNL     1     -39.494 -50.193  11.718  1.00  0.00     0.055 A 
HETATM   17  C   UNL     1     -38.106 -50.183  11.843  1.00  0.00     0.117 A 
HETATM   18  F   UNL     1     -37.364 -49.571  10.912  1.00  0.00    -0.206 F 
HETATM   19  C   UNL     1     -37.477 -50.804  12.918  1.00  0.00     0.045 A 
HETATM   20  C   UNL     1     -38.248 -51.445  13.885  1.00  0.00     0.046 A 
HETATM   21  C   UNL     1     -39.635 -51.460  13.758  1.00  0.00     0.125 A 
HETATM   22  F   UNL     1     -40.361 -52.098  14.686  1.00  0.00    -0.205 F 
ENDBRANCH   1  15
TORSDOF 4
ENDMDL
MODEL 9
REMARK VINA RESULT:      -6.0      3.505      6.593
REMARK  4 active torsions:
REMARK  status: ('A' for Active; 'I' for Inactive)
REMARK    1  A    between atoms: O_1  and  C_2 
REMARK    2  A    between atoms: C_2  and  C_3 
REMARK    3  A    between atoms: C_2  and  C_14 
REMARK    4  A    between atoms: C_3  and  N_4 
ROOT
HETATM    1  C   UNL     1     -38.970 -50.864  12.801  1.00  0.00     0.172 C 
ENDROOT
BRANCH   1   2
HETATM    2  O   UNL     1     -38.203 -51.203  11.641  1.00  0.00    -0.389 OA
HETATM    3  H   UNL     1     -37.941 -50.373  11.203  1.00  0.00     0.210 HD
ENDBRANCH   1   2
BRANCH   1   4
HETATM    4  C   UNL     1     -39.533 -52.122  13.490  1.00  0.00     0.166 C 
BRANCH   4   5
HETATM    5  N   UNL     1     -40.857 -52.525  13.047  1.00  0.00    -0.338 N 
HETATM    6  C   UNL     1     -41.478 -52.074  11.914  1.00  0.00     0.184 A 
HETATM    7  N   UNL     1     -42.674 -52.592  11.770  1.00  0.00    -0.350 N 
HETATM    8  C   UNL     1     -42.848 -53.398  12.866  1.00  0.00     0.060 A 
ATOM      9  HN  UNL     1     -43.332 -52.431  11.008  1.00  0.00     0.166 HD
HETATM   10  C   UNL     1     -43.955 -54.182  13.220  1.00  0.00     0.032 A 
HETATM   11  C   UNL     1     -41.728 -53.368  13.697  1.00  0.00     0.062 A 
HETATM   12  C   UNL     1     -43.914 -54.907  14.416  1.00  0.00     0.002 A 
HETATM   13  C   UNL     1     -42.789 -54.858  15.239  1.00  0.00     0.002 A 
HETATM   14  C   UNL     1     -41.667 -54.092  14.895  1.00  0.00     0.032 A 
ENDBRANCH   4   5
ENDBRANCH   1   4
BRANCH   1  15
HETATM   15  C   UNL     1     -38.159 -49.991  13.729  1.00  0.00     0.013 A 
HETATM   16  C   UNL     1     -37.470 -50.512  14.833  1.00  0.00     0.055 A 
HETATM   17  C   UNL     1     -36.776 -49.659  15.688  1.00  0.00     0.117 A 
HETATM   18  F   UNL     1     -36.129 -50.167  16.745  1.00  0.00    -0.206 F 
HETATM   19  C   UNL     1     -36.746 -48.287  15.465  1.00  0.00     0.045 A 
HETATM   20  C   UNL     1     -37.422 -47.756  14.369  1.00  0.00     0.046 A 
HETATM   21  C   UNL     1     -38.122 -48.607  13.517  1.00  0.00     0.125 A 
HETATM   22  F   UNL     1     -38.784 -48.080  12.478  1.00  0.00    -0.205 F 
ENDBRANCH   1  15
TORSDOF 4
ENDMDL
