MODEL 1
REMARK VINA RESULT:      -6.8      0.000      0.000
REMARK  4 active torsions:
REMARK  status: ('A' for Active; 'I' for Inactive)
REMARK    1  A    between atoms: C_5  and  C_6 
REMARK    2  A    between atoms: C_6  and  C_7 
REMARK    3  A    between atoms: C_7  and  N_8 
REMARK       I    between atoms: N_8  and  C_9 
REMARK       I    between atoms: C_9  and  N_11 
REMARK    4  A    between atoms: N_11  and  C_12 
ROOT
HETATM    1  N   UNL     1     -40.494 -51.524  11.980  1.00  0.00    -0.343 N 
HETATM    2  C   UNL     1     -41.388 -50.497  12.197  1.00  0.00     0.316 C 
HETATM    3  O   UNL     1     -41.992 -50.335  13.250  1.00  0.00    -0.247 OA
HETATM    4  N   UNL     1     -41.552 -49.668  11.116  1.00  0.00    -0.337 N 
HETATM    5  H   UNL     1     -40.414 -51.833  11.023  1.00  0.00     0.164 HD
HETATM    6  H   UNL     1     -40.825 -49.690  10.416  1.00  0.00     0.164 HD
ENDROOT
BRANCH   1   7
HETATM    7  C   UNL     1     -40.416 -52.532  13.030  1.00  0.00     0.129 C 
BRANCH   7   8
HETATM    8  C   UNL     1     -41.044 -53.885  12.690  1.00  0.00     0.060 C 
BRANCH   8   9
HETATM    9  C   UNL     1     -42.451 -53.942  13.235  1.00  0.00    -0.041 A 
HETATM   10  C   UNL     1     -43.540 -53.505  12.478  1.00  0.00     0.010 A 
HETATM   11  C   UNL     1     -44.837 -53.696  12.954  1.00  0.00     0.025 A 
HETATM   12  C   UNL     1     -45.020 -54.319  14.183  1.00  0.00     0.005 A 
HETATM   13  C   UNL     1     -46.397 -54.624  14.694  1.00  0.00     0.068 C 
HETATM   14  N   UNL     1     -43.981 -54.730  14.946  1.00  0.00    -0.369 N 
HETATM   15  C   UNL     1     -42.731 -54.536  14.460  1.00  0.00     0.095 A 
ATOM     16  HN  UNL     1     -44.133 -55.169  15.854  1.00  0.00     0.165 HD
ENDBRANCH   8   9
ENDBRANCH   7   8
ENDBRANCH   1   7
BRANCH   4  17
HETATM   17  C   UNL     1     -42.427 -48.479  11.259  1.00  0.00     0.103 C 
HETATM   18  C   UNL     1     -42.831 -47.806   9.912  1.00  0.00     0.041 C 
HETATM   19  C   UNL     1     -44.026 -47.354   9.087  1.00  0.00     0.035 C 
HETATM   20  C   UNL     1     -42.856 -46.498  10.771  1.00  0.00     0.137 C 
HETATM   21  C   UNL     1     -43.605 -45.909   8.691  1.00  0.00     0.168 C 
HETATM   22  O   UNL     1     -42.833 -45.424   9.822  1.00  0.00    -0.385 OA
HETATM   23  C   UNL     1     -41.687 -47.095  11.583  1.00  0.00    -0.000 C 
HETATM   24  C   UNL     1     -41.750 -46.785  13.081  1.00  0.00     0.019 C 
HETATM   25  C   UNL     1     -40.300 -46.800  11.014  1.00  0.00     0.019 C 
ENDBRANCH   4  17
TORSDOF 4
ENDMDL
MODEL 2
REMARK VINA RESULT:      -6.4      2.201      2.991
REMARK  4 active torsions:
REMARK  status: ('A' for Active; 'I' for Inactive)
REMARK    1  A    between atoms: C_5  and  C_6 
REMARK    2  A    between atoms: C_6  and  C_7 
REMARK    3  A    between atoms: C_7  and  N_8 
REMARK       I    between atoms: N_8  and  C_9 
REMARK       I    between atoms: C_9  and  N_11 
REMARK    4  A    between atoms: N_11  and  C_12 
ROOT
HETATM    1  N   UNL     1     -42.794 -52.793  12.085  1.00  0.00    -0.343 N 
HETATM    2  C   UNL     1     -42.468 -51.604  12.701  1.00  0.00     0.316 C 
HETATM    3  O   UNL     1     -42.447 -51.452  13.916  1.00  0.00    -0.247 OA
HETATM    4  N   UNL     1     -42.173 -50.589  11.825  1.00  0.00    -0.337 N 
HETATM    5  H   UNL     1     -43.212 -52.707  11.171  1.00  0.00     0.164 HD
HETATM    6  H   UNL     1     -41.929 -50.862  10.884  1.00  0.00     0.164 HD
ENDROOT
BRANCH   1   7
HETATM    7  C   UNL     1     -43.285 -53.849  12.961  1.00  0.00     0.129 C 
BRANCH   7   8
HETATM    8  C   UNL     1     -44.792 -54.109  12.897  1.00  0.00     0.060 C 
BRANCH   8   9
HETATM    9  C   UNL     1     -45.498 -53.255  13.923  1.00  0.00    -0.041 A 
HETATM   10  C   UNL     1     -46.121 -52.057  13.565  1.00  0.00     0.010 A 
HETATM   11  C   UNL     1     -46.878 -51.361  14.505  1.00  0.00     0.025 A 
HETATM   12  C   UNL     1     -46.997 -51.876  15.791  1.00  0.00     0.005 A 
HETATM   13  C   UNL     1     -47.872 -51.208  16.811  1.00  0.00     0.068 C 
HETATM   14  N   UNL     1     -46.383 -53.021  16.170  1.00  0.00    -0.369 N 
HETATM   15  C   UNL     1     -45.656 -53.680  15.237  1.00  0.00     0.095 A 
ATOM     16  HN  UNL     1     -46.465 -53.375  17.124  1.00  0.00     0.165 HD
ENDBRANCH   8   9
ENDBRANCH   7   8
ENDBRANCH   1   7
BRANCH   4  17
HETATM   17  C   UNL     1     -41.726 -49.285  12.372  1.00  0.00     0.103 C 
HETATM   18  C   UNL     1     -41.652 -48.134  11.325  1.00  0.00     0.041 C 
HETATM   19  C   UNL     1     -42.133 -46.722  11.030  1.00  0.00     0.035 C 
HETATM   20  C   UNL     1     -40.493 -47.610  12.237  1.00  0.00     0.137 C 
HETATM   21  C   UNL     1     -40.806 -46.015  10.627  1.00  0.00     0.168 C 
HETATM   22  O   UNL     1     -39.785 -46.656  11.436  1.00  0.00    -0.385 OA
HETATM   23  C   UNL     1     -40.144 -49.087  12.517  1.00  0.00    -0.000 C 
HETATM   24  C   UNL     1     -39.693 -49.356  13.956  1.00  0.00     0.019 C 
HETATM   25  C   UNL     1     -39.183 -49.716  11.509  1.00  0.00     0.019 C 
ENDBRANCH   4  17
TORSDOF 4
ENDMDL
MODEL 3
REMARK VINA RESULT:      -6.4      1.376      2.355
REMARK  4 active torsions:
REMARK  status: ('A' for Active; 'I' for Inactive)
REMARK    1  A    between atoms: C_5  and  C_6 
REMARK    2  A    between atoms: C_6  and  C_7 
REMARK    3  A    between atoms: C_7  and  N_8 
REMARK       I    between atoms: N_8  and  C_9 
REMARK       I    between atoms: C_9  and  N_11 
REMARK    4  A    between atoms: N_11  and  C_12 
ROOT
HETATM    1  N   UNL     1     -42.039 -50.711  12.076  1.00  0.00    -0.343 N 
HETATM    2  C   UNL     1     -41.658 -49.632  11.307  1.00  0.00     0.316 C 
HETATM    3  O   UNL     1     -40.503 -49.420  10.961  1.00  0.00    -0.247 OA
HETATM    4  N   UNL     1     -42.696 -48.801  10.965  1.00  0.00    -0.337 N 
HETATM    5  H   UNL     1     -42.849 -50.562  12.659  1.00  0.00     0.164 HD
HETATM    6  H   UNL     1     -43.625 -49.190  11.032  1.00  0.00     0.164 HD
ENDROOT
BRANCH   1   7
HETATM    7  C   UNL     1     -40.955 -51.524  12.613  1.00  0.00     0.129 C 
BRANCH   7   8
HETATM    8  C   UNL     1     -41.234 -53.026  12.687  1.00  0.00     0.060 C 
BRANCH   8   9
HETATM    9  C   UNL     1     -42.600 -53.259  13.287  1.00  0.00    -0.041 A 
HETATM   10  C   UNL     1     -43.654 -53.763  12.521  1.00  0.00     0.010 A 
HETATM   11  C   UNL     1     -44.861 -54.094  13.134  1.00  0.00     0.025 A 
HETATM   12  C   UNL     1     -44.994 -53.912  14.506  1.00  0.00     0.005 A 
HETATM   13  C   UNL     1     -46.243 -54.334  15.221  1.00  0.00     0.068 C 
HETATM   14  N   UNL     1     -43.998 -53.402  15.266  1.00  0.00    -0.369 N 
HETATM   15  C   UNL     1     -42.833 -53.091  14.648  1.00  0.00     0.095 A 
ATOM     16  HN  UNL     1     -44.119 -53.257  16.269  1.00  0.00     0.165 HD
ENDBRANCH   8   9
ENDBRANCH   7   8
ENDBRANCH   1   7
BRANCH   4  17
HETATM   17  C   UNL     1     -42.421 -47.652  10.068  1.00  0.00     0.103 C 
HETATM   18  C   UNL     1     -42.638 -46.255  10.722  1.00  0.00     0.041 C 
HETATM   19  C   UNL     1     -41.959 -44.923  11.002  1.00  0.00     0.035 C 
HETATM   20  C   UNL     1     -43.012 -45.822   9.265  1.00  0.00     0.137 C 
HETATM   21  C   UNL     1     -43.041 -43.912  10.523  1.00  0.00     0.168 C 
HETATM   22  O   UNL     1     -43.696 -44.571   9.407  1.00  0.00    -0.385 OA
HETATM   23  C   UNL     1     -43.607 -47.234   9.077  1.00  0.00    -0.000 C 
HETATM   24  C   UNL     1     -43.379 -47.822   7.681  1.00  0.00     0.019 C 
HETATM   25  C   UNL     1     -45.067 -47.372   9.504  1.00  0.00     0.019 C 
ENDBRANCH   4  17
TORSDOF 4
ENDMDL
MODEL 4
REMARK VINA RESULT:      -6.3      2.595      7.378
REMARK  4 active torsions:
REMARK  status: ('A' for Active; 'I' for Inactive)
REMARK    1  A    between atoms: C_5  and  C_6 
REMARK    2  A    between atoms: C_6  and  C_7 
REMARK    3  A    between atoms: C_7  and  N_8 
REMARK       I    between atoms: N_8  and  C_9 
REMARK       I    between atoms: C_9  and  N_11 
REMARK    4  A    between atoms: N_11  and  C_12 
ROOT
HETATM    1  N   UNL     1     -39.013 -51.650  14.316  1.00  0.00    -0.343 N 
HETATM    2  C   UNL     1     -39.835 -52.688  13.932  1.00  0.00     0.316 C 
HETATM    3  O   UNL     1     -39.746 -53.260  12.853  1.00  0.00    -0.247 OA
HETATM    4  N   UNL     1     -40.778 -53.023  14.870  1.00  0.00    -0.337 N 
HETATM    5  H   UNL     1     -39.423 -50.986  14.955  1.00  0.00     0.164 HD
HETATM    6  H   UNL     1     -40.601 -52.718  15.817  1.00  0.00     0.164 HD
ENDROOT
BRANCH   1   7
HETATM    7  C   UNL     1     -38.113 -51.138  13.290  1.00  0.00     0.129 C 
BRANCH   7   8
HETATM    8  C   UNL     1     -38.088 -49.616  13.135  1.00  0.00     0.060 C 
BRANCH   8   9
HETATM    9  C   UNL     1     -39.317 -49.162  12.385  1.00  0.00    -0.041 A 
HETATM   10  C   UNL     1     -39.928 -47.938  12.664  1.00  0.00     0.010 A 
HETATM   11  C   UNL     1     -40.976 -47.487  11.864  1.00  0.00     0.025 A 
HETATM   12  C   UNL     1     -41.397 -48.274  10.797  1.00  0.00     0.005 A 
HETATM   13  C   UNL     1     -42.463 -47.790   9.858  1.00  0.00     0.068 C 
HETATM   14  N   UNL     1     -40.839 -49.475  10.521  1.00  0.00    -0.369 N 
HETATM   15  C   UNL     1     -39.820 -49.888  11.310  1.00  0.00     0.095 A 
ATOM     16  HN  UNL     1     -41.173 -50.047   9.745  1.00  0.00     0.165 HD
ENDBRANCH   8   9
ENDBRANCH   7   8
ENDBRANCH   1   7
BRANCH   4  17
HETATM   17  C   UNL     1     -41.666 -54.181  14.604  1.00  0.00     0.103 C 
HETATM   18  C   UNL     1     -43.054 -53.809  14.003  1.00  0.00     0.041 C 
HETATM   19  C   UNL     1     -43.992 -54.087  12.839  1.00  0.00     0.035 C 
HETATM   20  C   UNL     1     -43.537 -55.084  14.772  1.00  0.00     0.137 C 
HETATM   21  C   UNL     1     -45.340 -54.341  13.575  1.00  0.00     0.168 C 
HETATM   22  O   UNL     1     -44.965 -54.971  14.828  1.00  0.00    -0.385 OA
HETATM   23  C   UNL     1     -42.496 -54.735  15.856  1.00  0.00    -0.000 C 
HETATM   24  C   UNL     1     -41.804 -55.957  16.468  1.00  0.00     0.019 C 
HETATM   25  C   UNL     1     -43.000 -53.784  16.941  1.00  0.00     0.019 C 
ENDBRANCH   4  17
TORSDOF 4
ENDMDL
MODEL 5
REMARK VINA RESULT:      -6.1      1.720      2.577
REMARK  4 active torsions:
REMARK  status: ('A' for Active; 'I' for Inactive)
REMARK    1  A    between atoms: C_5  and  C_6 
REMARK    2  A    between atoms: C_6  and  C_7 
REMARK    3  A    between atoms: C_7  and  N_8 
REMARK       I    between atoms: N_8  and  C_9 
REMARK       I    between atoms: C_9  and  N_11 
REMARK    4  A    between atoms: N_11  and  C_12 
ROOT
HETATM    1  N   UNL     1     -39.013 -49.240  13.419  1.00  0.00    -0.343 N 
HETATM    2  C   UNL     1     -40.178 -48.547  13.165  1.00  0.00     0.316 C 
HETATM    3  O   UNL     1     -41.257 -48.826  13.672  1.00  0.00    -0.247 OA
HETATM    4  N   UNL     1     -40.025 -47.512  12.278  1.00  0.00    -0.337 N 
HETATM    5  H   UNL     1     -38.340 -49.245  12.667  1.00  0.00     0.164 HD
HETATM    6  H   UNL     1     -39.084 -47.171  12.140  1.00  0.00     0.164 HD
ENDROOT
BRANCH   1   7
HETATM    7  C   UNL     1     -39.155 -50.453  14.213  1.00  0.00     0.129 C 
BRANCH   7   8
HETATM    8  C   UNL     1     -38.963 -51.766  13.450  1.00  0.00     0.060 C 
BRANCH   8   9
HETATM    9  C   UNL     1     -40.309 -52.391  13.170  1.00  0.00    -0.041 A 
HETATM   10  C   UNL     1     -40.911 -53.258  14.083  1.00  0.00     0.010 A 
HETATM   11  C   UNL     1     -42.210 -53.710  13.857  1.00  0.00     0.025 A 
HETATM   12  C   UNL     1     -42.884 -53.287  12.717  1.00  0.00     0.005 A 
HETATM   13  C   UNL     1     -44.313 -53.678  12.477  1.00  0.00     0.068 C 
HETATM   14  N   UNL     1     -42.314 -52.467  11.805  1.00  0.00    -0.369 N 
HETATM   15  C   UNL     1     -41.052 -52.039  12.048  1.00  0.00     0.095 A 
ATOM     16  HN  UNL     1     -42.816 -52.181  10.964  1.00  0.00     0.165 HD
ENDBRANCH   8   9
ENDBRANCH   7   8
ENDBRANCH   1   7
BRANCH   4  17
HETATM   17  C   UNL     1     -41.191 -46.642  11.991  1.00  0.00     0.103 C 
HETATM   18  C   UNL     1     -41.998 -47.039  10.718  1.00  0.00     0.041 C 
HETATM   19  C   UNL     1     -43.391 -47.388  10.219  1.00  0.00     0.035 C 
HETATM   20  C   UNL     1     -42.290 -45.504  10.634  1.00  0.00     0.137 C 
HETATM   21  C   UNL     1     -43.512 -46.477   8.963  1.00  0.00     0.168 C 
HETATM   22  O   UNL     1     -42.758 -45.282   9.298  1.00  0.00    -0.385 OA
HETATM   23  C   UNL     1     -40.878 -45.277  11.215  1.00  0.00    -0.000 C 
HETATM   24  C   UNL     1     -40.791 -44.104  12.195  1.00  0.00     0.019 C 
HETATM   25  C   UNL     1     -39.764 -45.211  10.171  1.00  0.00     0.019 C 
ENDBRANCH   4  17
TORSDOF 4
ENDMDL
MODEL 6
REMARK VINA RESULT:      -6.0      3.024      7.505
REMARK  4 active torsions:
REMARK  status: ('A' for Active; 'I' for Inactive)
REMARK    1  A    between atoms: C_5  and  C_6 
REMARK    2  A    between atoms: C_6  and  C_7 
REMARK    3  A    between atoms: C_7  and  N_8 
REMARK       I    between atoms: N_8  and  C_9 
REMARK       I    between atoms: C_9  and  N_11 
REMARK    4  A    between atoms: N_11  and  C_12 
ROOT
HETATM    1  N   UNL     1     -42.210 -49.645  11.578  1.00  0.00    -0.343 N 
HETATM    2  C   UNL     1     -42.387 -50.556  12.598  1.00  0.00     0.316 C 
HETATM    3  O   UNL     1     -41.474 -50.984  13.291  1.00  0.00    -0.247 OA
HETATM    4  N   UNL     1     -43.690 -50.953  12.765  1.00  0.00    -0.337 N 
HETATM    5  H   UNL     1     -42.876 -49.706  10.822  1.00  0.00     0.164 HD
HETATM    6  H   UNL     1     -44.400 -50.354  12.369  1.00  0.00     0.164 HD
ENDROOT
BRANCH   1   7
HETATM    7  C   UNL     1     -40.829 -49.326  11.243  1.00  0.00     0.129 C 
BRANCH   7   8
HETATM    8  C   UNL     1     -40.417 -47.868  11.463  1.00  0.00     0.060 C 
BRANCH   8   9
HETATM    9  C   UNL     1     -39.341 -47.799  12.520  1.00  0.00    -0.041 A 
HETATM   10  C   UNL     1     -39.242 -46.709  13.386  1.00  0.00     0.010 A 
HETATM   11  C   UNL     1     -38.326 -46.737  14.436  1.00  0.00     0.025 A 
HETATM   12  C   UNL     1     -37.519 -47.858  14.598  1.00  0.00     0.005 A 
HETATM   13  C   UNL     1     -36.580 -47.969  15.762  1.00  0.00     0.068 C 
HETATM   14  N   UNL     1     -37.577 -48.917  13.757  1.00  0.00    -0.369 N 
HETATM   15  C   UNL     1     -38.479 -48.867  12.748  1.00  0.00     0.095 A 
ATOM     16  HN  UNL     1     -36.965 -49.723  13.880  1.00  0.00     0.165 HD
ENDBRANCH   8   9
ENDBRANCH   7   8
ENDBRANCH   1   7
BRANCH   4  17
HETATM   17  C   UNL     1     -44.016 -51.868  13.886  1.00  0.00     0.103 C 
HETATM   18  C   UNL     1     -44.453 -53.298  13.449  1.00  0.00     0.041 C 
HETATM   19  C   UNL     1     -44.148 -54.776  13.638  1.00  0.00     0.035 C 
HETATM   20  C   UNL     1     -45.312 -53.250  14.756  1.00  0.00     0.137 C 
HETATM   21  C   UNL     1     -45.567 -55.358  13.906  1.00  0.00     0.168 C 
HETATM   22  O   UNL     1     -46.271 -54.305  14.617  1.00  0.00    -0.385 OA
HETATM   23  C   UNL     1     -45.492 -51.739  14.494  1.00  0.00    -0.000 C 
HETATM   24  C   UNL     1     -45.481 -50.884  15.764  1.00  0.00     0.019 C 
HETATM   25  C   UNL     1     -46.677 -51.385  13.598  1.00  0.00     0.019 C 
ENDBRANCH   4  17
TORSDOF 4
ENDMDL
MODEL 7
REMARK VINA RESULT:      -5.9      3.425      5.004
REMARK  4 active torsions:
REMARK  status: ('A' for Active; 'I' for Inactive)
REMARK    1  A    between atoms: C_5  and  C_6 
REMARK    2  A    between atoms: C_6  and  C_7 
REMARK    3  A    between atoms: C_7  and  N_8 
REMARK       I    between atoms: N_8  and  C_9 
REMARK       I    between atoms: C_9  and  N_11 
REMARK    4  A    between atoms: N_11  and  C_12 
ROOT
HETATM    1  N   UNL     1     -42.528 -52.426  12.112  1.00  0.00    -0.343 N 
HETATM    2  C   UNL     1     -41.264 -52.380  12.661  1.00  0.00     0.316 C 
HETATM    3  O   UNL     1     -40.797 -53.268  13.363  1.00  0.00    -0.247 OA
HETATM    4  N   UNL     1     -40.569 -51.236  12.358  1.00  0.00    -0.337 N 
HETATM    5  H   UNL     1     -42.967 -51.530  11.962  1.00  0.00     0.164 HD
HETATM    6  H   UNL     1     -40.894 -50.709  11.561  1.00  0.00     0.164 HD
ENDROOT
BRANCH   1   7
HETATM    7  C   UNL     1     -43.370 -53.533  12.546  1.00  0.00     0.129 C 
BRANCH   7   8
HETATM    8  C   UNL     1     -44.875 -53.323  12.370  1.00  0.00     0.060 C 
BRANCH   8   9
HETATM    9  C   UNL     1     -45.466 -52.786  13.652  1.00  0.00    -0.041 A 
HETATM   10  C   UNL     1     -46.253 -51.633  13.662  1.00  0.00     0.010 A 
HETATM   11  C   UNL     1     -46.894 -51.240  14.835  1.00  0.00     0.025 A 
HETATM   12  C   UNL     1     -46.732 -52.009  15.982  1.00  0.00     0.005 A 
HETATM   13  C   UNL     1     -47.471 -51.674  17.245  1.00  0.00     0.068 C 
HETATM   14  N   UNL     1     -45.955 -53.116  16.006  1.00  0.00    -0.369 N 
HETATM   15  C   UNL     1     -45.346 -53.479  14.851  1.00  0.00     0.095 A 
ATOM     16  HN  UNL     1     -45.832 -53.658  16.861  1.00  0.00     0.165 HD
ENDBRANCH   8   9
ENDBRANCH   7   8
ENDBRANCH   1   7
BRANCH   4  17
HETATM   17  C   UNL     1     -39.167 -51.111  12.825  1.00  0.00     0.103 C 
HETATM   18  C   UNL     1     -39.014 -50.590  14.285  1.00  0.00     0.041 C 
HETATM   19  C   UNL     1     -38.389 -50.911  15.634  1.00  0.00     0.035 C 
HETATM   20  C   UNL     1     -37.676 -49.982  13.746  1.00  0.00     0.137 C 
HETATM   21  C   UNL     1     -37.707 -49.559  15.994  1.00  0.00     0.168 C 
HETATM   22  O   UNL     1     -37.287 -49.005  14.719  1.00  0.00    -0.385 OA
HETATM   23  C   UNL     1     -38.400 -49.771  12.399  1.00  0.00    -0.000 C 
HETATM   24  C   UNL     1     -37.516 -50.019  11.174  1.00  0.00     0.019 C 
HETATM   25  C   UNL     1     -39.152 -48.446  12.281  1.00  0.00     0.019 C 
ENDBRANCH   4  17
TORSDOF 4
ENDMDL
MODEL 8
REMARK VINA RESULT:      -5.8      3.812      5.275
REMARK  4 active torsions:
REMARK  status: ('A' for Active; 'I' for Inactive)
REMARK    1  A    between atoms: C_5  and  C_6 
REMARK    2  A    between atoms: C_6  and  C_7 
REMARK    3  A    between atoms: C_7  and  N_8 
REMARK       I    between atoms: N_8  and  C_9 
REMARK       I    between atoms: C_9  and  N_11 
REMARK    4  A    between atoms: N_11  and  C_12 
ROOT
HETATM    1  N   UNL     1     -41.036 -53.097  14.877  1.00  0.00    -0.343 N 
HETATM    2  C   UNL     1     -39.944 -52.481  14.303  1.00  0.00     0.316 C 
HETATM    3  O   UNL     1     -39.454 -52.826  13.236  1.00  0.00    -0.247 OA
HETATM    4  N   UNL     1     -39.440 -51.443  15.046  1.00  0.00    -0.337 N 
HETATM    5  H   UNL     1     -41.073 -53.062  15.885  1.00  0.00     0.164 HD
HETATM    6  H   UNL     1     -40.056 -51.043  15.739  1.00  0.00     0.164 HD
ENDROOT
BRANCH   1   7
HETATM    7  C   UNL     1     -41.498 -54.313  14.220  1.00  0.00     0.129 C 
BRANCH   7   8
HETATM    8  C   UNL     1     -42.842 -54.856  14.711  1.00  0.00     0.060 C 
BRANCH   8   9
HETATM    9  C   UNL     1     -43.967 -54.152  13.991  1.00  0.00    -0.041 A 
HETATM   10  C   UNL     1     -45.207 -53.949  14.601  1.00  0.00     0.010 A 
HETATM   11  C   UNL     1     -46.177 -53.179  13.963  1.00  0.00     0.025 A 
HETATM   12  C   UNL     1     -45.890 -52.626  12.721  1.00  0.00     0.005 A 
HETATM   13  C   UNL     1     -46.870 -51.719  12.036  1.00  0.00     0.068 C 
HETATM   14  N   UNL     1     -44.707 -52.827  12.096  1.00  0.00    -0.369 N 
HETATM   15  C   UNL     1     -43.779 -53.576  12.739  1.00  0.00     0.095 A 
ATOM     16  HN  UNL     1     -44.520 -52.429  11.176  1.00  0.00     0.165 HD
ENDBRANCH   8   9
ENDBRANCH   7   8
ENDBRANCH   1   7
BRANCH   4  17
HETATM   17  C   UNL     1     -38.316 -50.651  14.490  1.00  0.00     0.103 C 
HETATM   18  C   UNL     1     -37.551 -49.788  15.537  1.00  0.00     0.041 C 
HETATM   19  C   UNL     1     -36.169 -49.502  16.104  1.00  0.00     0.035 C 
HETATM   20  C   UNL     1     -37.313 -48.832  14.321  1.00  0.00     0.137 C 
HETATM   21  C   UNL     1     -36.131 -47.946  16.068  1.00  0.00     0.168 C 
HETATM   22  O   UNL     1     -36.909 -47.583  14.897  1.00  0.00    -0.385 OA
HETATM   23  C   UNL     1     -38.706 -49.255  13.809  1.00  0.00    -0.000 C 
HETATM   24  C   UNL     1     -38.790 -49.398  12.287  1.00  0.00     0.019 C 
HETATM   25  C   UNL     1     -39.865 -48.419  14.352  1.00  0.00     0.019 C 
ENDBRANCH   4  17
TORSDOF 4
ENDMDL
MODEL 9
REMARK VINA RESULT:      -5.7      1.997      2.467
REMARK  4 active torsions:
REMARK  status: ('A' for Active; 'I' for Inactive)
REMARK    1  A    between atoms: C_5  and  C_6 
REMARK    2  A    between atoms: C_6  and  C_7 
REMARK    3  A    between atoms: C_7  and  N_8 
REMARK       I    between atoms: N_8  and  C_9 
REMARK       I    between atoms: C_9  and  N_11 
REMARK    4  A    between atoms: N_11  and  C_12 
ROOT
HETATM    1  N   UNL     1     -40.211 -51.405  11.892  1.00  0.00    -0.343 N 
HETATM    2  C   UNL     1     -40.894 -50.217  12.045  1.00  0.00     0.316 C 
HETATM    3  O   UNL     1     -42.110 -50.145  12.171  1.00  0.00    -0.247 OA
HETATM    4  N   UNL     1     -40.086 -49.108  12.035  1.00  0.00    -0.337 N 
HETATM    5  H   UNL     1     -39.352 -51.345  11.366  1.00  0.00     0.164 HD
HETATM    6  H   UNL     1     -39.105 -49.263  12.221  1.00  0.00     0.164 HD
ENDROOT
BRANCH   1   7
HETATM    7  C   UNL     1     -41.034 -52.594  11.718  1.00  0.00     0.129 C 
BRANCH   7   8
HETATM    8  C   UNL     1     -40.953 -53.622  12.849  1.00  0.00     0.060 C 
BRANCH   8   9
HETATM    9  C   UNL     1     -42.346 -53.996  13.296  1.00  0.00    -0.041 A 
HETATM   10  C   UNL     1     -42.563 -54.706  14.478  1.00  0.00     0.010 A 
HETATM   11  C   UNL     1     -43.864 -54.917  14.932  1.00  0.00     0.025 A 
HETATM   12  C   UNL     1     -44.927 -54.414  14.191  1.00  0.00     0.005 A 
HETATM   13  C   UNL     1     -46.338 -54.541  14.684  1.00  0.00     0.068 C 
HETATM   14  N   UNL     1     -44.745 -53.744  13.029  1.00  0.00    -0.369 N 
HETATM   15  C   UNL     1     -43.471 -53.549  12.612  1.00  0.00     0.095 A 
ATOM     16  HN  UNL     1     -45.538 -53.398  12.488  1.00  0.00     0.165 HD
ENDBRANCH   8   9
ENDBRANCH   7   8
ENDBRANCH   1   7
BRANCH   4  17
HETATM   17  C   UNL     1     -40.699 -47.779  12.276  1.00  0.00     0.103 C 
HETATM   18  C   UNL     1     -40.117 -46.629  11.400  1.00  0.00     0.041 C 
HETATM   19  C   UNL     1     -40.500 -45.527  10.425  1.00  0.00     0.035 C 
HETATM   20  C   UNL     1     -40.475 -45.738  12.636  1.00  0.00     0.137 C 
HETATM   21  C   UNL     1     -39.734 -44.306  11.013  1.00  0.00     0.168 C 
HETATM   22  O   UNL     1     -39.741 -44.521  12.449  1.00  0.00    -0.385 OA
HETATM   23  C   UNL     1     -40.124 -46.953  13.521  1.00  0.00    -0.000 C 
HETATM   24  C   UNL     1     -41.032 -47.113  14.744  1.00  0.00     0.019 C 
HETATM   25  C   UNL     1     -38.650 -47.053  13.910  1.00  0.00     0.019 C 
ENDBRANCH   4  17
TORSDOF 4
ENDMDL
