MODEL 1
REMARK VINA RESULT:      -5.6      0.000      0.000
REMARK  4 active torsions:
REMARK  status: ('A' for Active; 'I' for Inactive)
REMARK    1  A    between atoms: C_2  and  C_4 
REMARK    2  A    between atoms: C_4  and  N_6 
REMARK       I    between atoms: N_6  and  C_7 
REMARK    3  A    between atoms: C_7  and  C_9 
REMARK    4  A    between atoms: C_9  and  C_10 
ROOT
HETATM    1  C   UNL     1     -44.346 -54.160  13.779  1.00  0.00     0.041 A 
HETATM    2  C   UNL     1     -43.078 -54.371  14.185  1.00  0.00     0.018 A 
HETATM    3  C   UNL     1     -42.718 -55.216  15.381  1.00  0.00     0.069 C 
HETATM    4  N   UNL     1     -41.974 -53.842  13.552  1.00  0.00    -0.349 N 
ATOM      5  HN  UNL     1     -41.032 -54.023  13.899  1.00  0.00     0.167 HD
HETATM    6  C   UNL     1     -42.167 -53.109  12.508  1.00  0.00     0.080 A 
HETATM    7  C   UNL     1     -41.008 -52.540  11.742  1.00  0.00     0.089 C 
HETATM    8  N   UNL     1     -43.403 -52.809  12.019  1.00  0.00    -0.313 N 
HETATM    9  C   UNL     1     -44.540 -53.248  12.625  1.00  0.00     0.255 A 
HETATM   10  O   UNL     1     -45.656 -52.912  12.241  1.00  0.00    -0.268 OA
HETATM   11  H   UNL     1     -43.520 -52.195  11.229  1.00  0.00     0.170 HD
ENDROOT
BRANCH   1  12
HETATM   12  C   UNL     1     -45.596 -54.769  14.339  1.00  0.00     0.149 C 
BRANCH  12  13
HETATM   13  C   UNL     1     -45.946 -54.108  15.659  1.00  0.00     0.222 C 
HETATM   14  N   UNL     1     -46.202 -52.757  15.574  1.00  0.00    -0.356 N 
HETATM   15  H   UNL     1     -46.140 -52.303  14.666  1.00  0.00     0.162 HD
HETATM   16  O   UNL     1     -45.978 -54.740  16.710  1.00  0.00    -0.273 OA
BRANCH  14  17
HETATM   17  C   UNL     1     -46.588 -51.971  16.742  1.00  0.00     0.083 C 
HETATM   18  C   UNL     1     -47.920 -51.270  16.456  1.00  0.00     0.032 C 
BRANCH  17  19
HETATM   19  C   UNL     1     -45.468 -50.976  17.143  1.00  0.00    -0.000 C 
HETATM   20  C   UNL     1     -44.631 -50.542  15.934  1.00  0.00     0.011 C 
HETATM   21  C   UNL     1     -46.046 -49.721  17.813  1.00  0.00     0.011 C 
ENDBRANCH  17  19
ENDBRANCH  14  17
ENDBRANCH  12  13
ENDBRANCH   1  12
TORSDOF 4
ENDMDL
MODEL 2
REMARK VINA RESULT:      -5.5      1.178      2.018
REMARK  4 active torsions:
REMARK  status: ('A' for Active; 'I' for Inactive)
REMARK    1  A    between atoms: C_2  and  C_4 
REMARK    2  A    between atoms: C_4  and  N_6 
REMARK       I    between atoms: N_6  and  C_7 
REMARK    3  A    between atoms: C_7  and  C_9 
REMARK    4  A    between atoms: C_9  and  C_10 
ROOT
HETATM    1  C   UNL     1     -44.892 -54.046  13.793  1.00  0.00     0.041 A 
HETATM    2  C   UNL     1     -44.892 -53.074  12.857  1.00  0.00     0.018 A 
HETATM    3  C   UNL     1     -46.148 -52.427  12.330  1.00  0.00     0.069 C 
HETATM    4  N   UNL     1     -43.746 -52.566  12.283  1.00  0.00    -0.349 N 
ATOM      5  HN  UNL     1     -43.795 -51.835  11.574  1.00  0.00     0.167 HD
HETATM    6  C   UNL     1     -42.611 -53.042  12.670  1.00  0.00     0.080 A 
HETATM    7  C   UNL     1     -41.323 -52.501  12.121  1.00  0.00     0.089 C 
HETATM    8  N   UNL     1     -42.490 -54.039  13.590  1.00  0.00    -0.313 N 
HETATM    9  C   UNL     1     -43.577 -54.630  14.156  1.00  0.00     0.255 A 
HETATM   10  O   UNL     1     -43.479 -55.584  14.921  1.00  0.00    -0.268 OA
HETATM   11  H   UNL     1     -41.590 -54.421  13.835  1.00  0.00     0.170 HD
ENDROOT
BRANCH   1  12
HETATM   12  C   UNL     1     -46.072 -54.590  14.541  1.00  0.00     0.149 C 
BRANCH  12  13
HETATM   13  C   UNL     1     -46.169 -53.930  15.903  1.00  0.00     0.222 C 
HETATM   14  N   UNL     1     -46.544 -52.604  15.872  1.00  0.00    -0.356 N 
HETATM   15  H   UNL     1     -46.722 -52.166  14.972  1.00  0.00     0.162 HD
HETATM   16  O   UNL     1     -45.915 -54.540  16.936  1.00  0.00    -0.273 OA
BRANCH  14  17
HETATM   17  C   UNL     1     -46.720 -51.825  17.095  1.00  0.00     0.083 C 
HETATM   18  C   UNL     1     -48.069 -51.102  17.037  1.00  0.00     0.032 C 
BRANCH  17  19
HETATM   19  C   UNL     1     -45.534 -50.851  17.314  1.00  0.00    -0.000 C 
HETATM   20  C   UNL     1     -44.822 -50.513  15.999  1.00  0.00     0.011 C 
HETATM   21  C   UNL     1     -45.996 -49.542  17.969  1.00  0.00     0.011 C 
ENDBRANCH  17  19
ENDBRANCH  14  17
ENDBRANCH  12  13
ENDBRANCH   1  12
TORSDOF 4
ENDMDL
MODEL 3
REMARK VINA RESULT:      -5.5      2.693      3.756
REMARK  4 active torsions:
REMARK  status: ('A' for Active; 'I' for Inactive)
REMARK    1  A    between atoms: C_2  and  C_4 
REMARK    2  A    between atoms: C_4  and  N_6 
REMARK       I    between atoms: N_6  and  C_7 
REMARK    3  A    between atoms: C_7  and  C_9 
REMARK    4  A    between atoms: C_9  and  C_10 
ROOT
HETATM    1  C   UNL     1     -40.596 -53.178  13.389  1.00  0.00     0.041 A 
HETATM    2  C   UNL     1     -39.467 -52.987  14.102  1.00  0.00     0.018 A 
HETATM    3  C   UNL     1     -39.060 -53.856  15.265  1.00  0.00     0.069 C 
HETATM    4  N   UNL     1     -38.562 -51.979  13.844  1.00  0.00    -0.349 N 
ATOM      5  HN  UNL     1     -37.724 -51.868  14.414  1.00  0.00     0.167 HD
HETATM    6  C   UNL     1     -38.807 -51.180  12.861  1.00  0.00     0.080 A 
HETATM    7  C   UNL     1     -37.841 -50.092  12.496  1.00  0.00     0.089 C 
HETATM    8  N   UNL     1     -39.925 -51.264  12.088  1.00  0.00    -0.313 N 
HETATM    9  C   UNL     1     -40.890 -52.195  12.318  1.00  0.00     0.255 A 
HETATM   10  O   UNL     1     -41.939 -52.222  11.681  1.00  0.00    -0.268 OA
HETATM   11  H   UNL     1     -40.109 -50.594  11.357  1.00  0.00     0.170 HD
ENDROOT
BRANCH   1  12
HETATM   12  C   UNL     1     -41.584 -54.297  13.531  1.00  0.00     0.149 C 
BRANCH  12  13
HETATM   13  C   UNL     1     -42.721 -53.871  14.440  1.00  0.00     0.222 C 
HETATM   14  N   UNL     1     -43.912 -53.625  13.793  1.00  0.00    -0.356 N 
HETATM   15  H   UNL     1     -43.953 -53.737  12.783  1.00  0.00     0.162 HD
HETATM   16  O   UNL     1     -42.568 -53.746  15.651  1.00  0.00    -0.273 OA
BRANCH  14  17
HETATM   17  C   UNL     1     -45.118 -53.239  14.520  1.00  0.00     0.083 C 
HETATM   18  C   UNL     1     -46.105 -54.411  14.509  1.00  0.00     0.032 C 
BRANCH  17  19
HETATM   19  C   UNL     1     -45.733 -51.941  13.935  1.00  0.00    -0.000 C 
HETATM   20  C   UNL     1     -46.316 -52.165  12.535  1.00  0.00     0.011 C 
HETATM   21  C   UNL     1     -46.840 -51.386  14.843  1.00  0.00     0.011 C 
ENDBRANCH  17  19
ENDBRANCH  14  17
ENDBRANCH  12  13
ENDBRANCH   1  12
TORSDOF 4
ENDMDL
MODEL 4
REMARK VINA RESULT:      -5.4      7.693      9.011
REMARK  4 active torsions:
REMARK  status: ('A' for Active; 'I' for Inactive)
REMARK    1  A    between atoms: C_2  and  C_4 
REMARK    2  A    between atoms: C_4  and  N_6 
REMARK       I    between atoms: N_6  and  C_7 
REMARK    3  A    between atoms: C_7  and  C_9 
REMARK    4  A    between atoms: C_9  and  C_10 
ROOT
HETATM    1  C   UNL     1     -42.735 -46.088   9.948  1.00  0.00     0.041 A 
HETATM    2  C   UNL     1     -42.933 -47.422   9.913  1.00  0.00     0.018 A 
HETATM    3  C   UNL     1     -41.865 -48.429  10.255  1.00  0.00     0.069 C 
HETATM    4  N   UNL     1     -44.131 -48.008   9.564  1.00  0.00    -0.349 N 
ATOM      5  HN  UNL     1     -44.233 -49.023   9.546  1.00  0.00     0.167 HD
HETATM    6  C   UNL     1     -45.119 -47.236   9.262  1.00  0.00     0.080 A 
HETATM    7  C   UNL     1     -46.465 -47.806   8.920  1.00  0.00     0.089 C 
HETATM    8  N   UNL     1     -45.030 -45.877   9.241  1.00  0.00    -0.313 N 
HETATM    9  C   UNL     1     -43.866 -45.229   9.517  1.00  0.00     0.255 A 
HETATM   10  O   UNL     1     -43.755 -44.011   9.417  1.00  0.00    -0.268 OA
HETATM   11  H   UNL     1     -45.809 -45.304   8.954  1.00  0.00     0.170 HD
ENDROOT
BRANCH   1  12
HETATM   12  C   UNL     1     -41.507 -45.360  10.406  1.00  0.00     0.149 C 
BRANCH  12  13
HETATM   13  C   UNL     1     -41.351 -45.505  11.908  1.00  0.00     0.222 C 
HETATM   14  N   UNL     1     -40.186 -46.123  12.306  1.00  0.00    -0.356 N 
HETATM   15  H   UNL     1     -39.528 -46.435  11.596  1.00  0.00     0.162 HD
HETATM   16  O   UNL     1     -42.211 -45.111  12.688  1.00  0.00    -0.273 OA
BRANCH  14  17
HETATM   17  C   UNL     1     -39.858 -46.313  13.717  1.00  0.00     0.083 C 
HETATM   18  C   UNL     1     -39.074 -45.096  14.216  1.00  0.00     0.032 C 
BRANCH  17  19
HETATM   19  C   UNL     1     -39.094 -47.643  13.940  1.00  0.00    -0.000 C 
HETATM   20  C   UNL     1     -38.973 -48.457  12.646  1.00  0.00     0.011 C 
HETATM   21  C   UNL     1     -37.684 -47.395  14.494  1.00  0.00     0.011 C 
ENDBRANCH  17  19
ENDBRANCH  14  17
ENDBRANCH  12  13
ENDBRANCH   1  12
TORSDOF 4
ENDMDL
MODEL 5
REMARK VINA RESULT:      -5.3      2.345      5.056
REMARK  4 active torsions:
REMARK  status: ('A' for Active; 'I' for Inactive)
REMARK    1  A    between atoms: C_2  and  C_4 
REMARK    2  A    between atoms: C_4  and  N_6 
REMARK       I    between atoms: N_6  and  C_7 
REMARK    3  A    between atoms: C_7  and  C_9 
REMARK    4  A    between atoms: C_9  and  C_10 
ROOT
HETATM    1  C   UNL     1     -44.976 -52.708  14.737  1.00  0.00     0.041 A 
HETATM    2  C   UNL     1     -44.677 -51.626  13.990  1.00  0.00     0.018 A 
HETATM    3  C   UNL     1     -43.526 -50.700  14.291  1.00  0.00     0.069 C 
HETATM    4  N   UNL     1     -45.387 -51.251  12.870  1.00  0.00    -0.349 N 
ATOM      5  HN  UNL     1     -45.128 -50.420  12.338  1.00  0.00     0.167 HD
HETATM    6  C   UNL     1     -46.390 -51.981  12.514  1.00  0.00     0.080 A 
HETATM    7  C   UNL     1     -47.177 -51.657  11.278  1.00  0.00     0.089 C 
HETATM    8  N   UNL     1     -46.798 -53.082  13.204  1.00  0.00    -0.313 N 
HETATM    9  C   UNL     1     -46.182 -53.480  14.350  1.00  0.00     0.255 A 
HETATM   10  O   UNL     1     -46.596 -54.420  15.023  1.00  0.00    -0.268 OA
HETATM   11  H   UNL     1     -47.614 -53.603  12.925  1.00  0.00     0.170 HD
ENDROOT
BRANCH   1  12
HETATM   12  C   UNL     1     -44.209 -53.248  15.907  1.00  0.00     0.149 C 
BRANCH  12  13
HETATM   13  C   UNL     1     -43.178 -54.253  15.428  1.00  0.00     0.222 C 
HETATM   14  N   UNL     1     -41.922 -53.728  15.214  1.00  0.00    -0.356 N 
HETATM   15  H   UNL     1     -41.770 -52.736  15.381  1.00  0.00     0.162 HD
HETATM   16  O   UNL     1     -43.462 -55.430  15.238  1.00  0.00    -0.273 OA
BRANCH  14  17
HETATM   17  C   UNL     1     -40.802 -54.561  14.785  1.00  0.00     0.083 C 
HETATM   18  C   UNL     1     -39.927 -54.887  16.000  1.00  0.00     0.032 C 
BRANCH  17  19
HETATM   19  C   UNL     1     -40.002 -53.881  13.644  1.00  0.00    -0.000 C 
HETATM   20  C   UNL     1     -40.925 -53.309  12.562  1.00  0.00     0.011 C 
HETATM   21  C   UNL     1     -39.115 -52.748  14.179  1.00  0.00     0.011 C 
ENDBRANCH  17  19
ENDBRANCH  14  17
ENDBRANCH  12  13
ENDBRANCH   1  12
TORSDOF 4
ENDMDL
MODEL 6
REMARK VINA RESULT:      -5.3      7.027      8.591
REMARK  4 active torsions:
REMARK  status: ('A' for Active; 'I' for Inactive)
REMARK    1  A    between atoms: C_2  and  C_4 
REMARK    2  A    between atoms: C_4  and  N_6 
REMARK       I    between atoms: N_6  and  C_7 
REMARK    3  A    between atoms: C_7  and  C_9 
REMARK    4  A    between atoms: C_9  and  C_10 
ROOT
HETATM    1  C   UNL     1     -42.735 -46.073  10.003  1.00  0.00     0.041 A 
HETATM    2  C   UNL     1     -42.868 -47.415  10.008  1.00  0.00     0.018 A 
HETATM    3  C   UNL     1     -41.780 -48.357  10.457  1.00  0.00     0.069 C 
HETATM    4  N   UNL     1     -44.012 -48.071   9.606  1.00  0.00    -0.349 N 
ATOM      5  HN  UNL     1     -44.066 -49.090   9.620  1.00  0.00     0.167 HD
HETATM    6  C   UNL     1     -45.013 -47.360   9.211  1.00  0.00     0.080 A 
HETATM    7  C   UNL     1     -46.305 -48.007   8.806  1.00  0.00     0.089 C 
HETATM    8  N   UNL     1     -44.986 -46.000   9.143  1.00  0.00    -0.313 N 
HETATM    9  C   UNL     1     -43.873 -45.286   9.467  1.00  0.00     0.255 A 
HETATM   10  O   UNL     1     -43.813 -44.068   9.327  1.00  0.00    -0.268 OA
HETATM   11  H   UNL     1     -45.769 -45.476   8.785  1.00  0.00     0.170 HD
ENDROOT
BRANCH   1  12
HETATM   12  C   UNL     1     -41.575 -45.271  10.511  1.00  0.00     0.149 C 
BRANCH  12  13
HETATM   13  C   UNL     1     -41.782 -44.932  11.975  1.00  0.00     0.222 C 
HETATM   14  N   UNL     1     -41.189 -45.810  12.856  1.00  0.00    -0.356 N 
HETATM   15  H   UNL     1     -40.671 -46.603  12.485  1.00  0.00     0.162 HD
HETATM   16  O   UNL     1     -42.441 -43.959  12.326  1.00  0.00    -0.273 OA
BRANCH  14  17
HETATM   17  C   UNL     1     -41.259 -45.615  14.301  1.00  0.00     0.083 C 
HETATM   18  C   UNL     1     -39.891 -45.930  14.915  1.00  0.00     0.032 C 
BRANCH  17  19
HETATM   19  C   UNL     1     -42.398 -46.461  14.926  1.00  0.00    -0.000 C 
HETATM   20  C   UNL     1     -43.638 -45.612  15.234  1.00  0.00     0.011 C 
HETATM   21  C   UNL     1     -42.813 -47.615  14.002  1.00  0.00     0.011 C 
ENDBRANCH  17  19
ENDBRANCH  14  17
ENDBRANCH  12  13
ENDBRANCH   1  12
TORSDOF 4
ENDMDL
MODEL 7
REMARK VINA RESULT:      -5.3      6.990      8.861
REMARK  4 active torsions:
REMARK  status: ('A' for Active; 'I' for Inactive)
REMARK    1  A    between atoms: C_2  and  C_4 
REMARK    2  A    between atoms: C_4  and  N_6 
REMARK       I    between atoms: N_6  and  C_7 
REMARK    3  A    between atoms: C_7  and  C_9 
REMARK    4  A    between atoms: C_9  and  C_10 
ROOT
HETATM    1  C   UNL     1     -41.517 -46.652  10.736  1.00  0.00     0.041 A 
HETATM    2  C   UNL     1     -42.489 -45.718  10.687  1.00  0.00     0.018 A 
HETATM    3  C   UNL     1     -42.295 -44.290  11.129  1.00  0.00     0.069 C 
HETATM    4  N   UNL     1     -43.764 -45.967  10.225  1.00  0.00    -0.349 N 
ATOM      5  HN  UNL     1     -44.470 -45.231  10.212  1.00  0.00     0.167 HD
HETATM    6  C   UNL     1     -44.038 -47.158   9.810  1.00  0.00     0.080 A 
HETATM    7  C   UNL     1     -45.392 -47.485   9.250  1.00  0.00     0.089 C 
HETATM    8  N   UNL     1     -43.143 -48.184   9.834  1.00  0.00    -0.313 N 
HETATM    9  C   UNL     1     -41.885 -48.030  10.329  1.00  0.00     0.255 A 
HETATM   10  O   UNL     1     -41.103 -48.970  10.433  1.00  0.00    -0.268 OA
HETATM   11  H   UNL     1     -43.404 -49.115   9.546  1.00  0.00     0.170 HD
ENDROOT
BRANCH   1  12
HETATM   12  C   UNL     1     -40.083 -46.453  11.127  1.00  0.00     0.149 C 
BRANCH  12  13
HETATM   13  C   UNL     1     -39.805 -47.151  12.444  1.00  0.00     0.222 C 
HETATM   14  N   UNL     1     -38.795 -48.087  12.395  1.00  0.00    -0.356 N 
HETATM   15  H   UNL     1     -38.318 -48.248  11.512  1.00  0.00     0.162 HD
HETATM   16  O   UNL     1     -40.449 -46.900  13.457  1.00  0.00    -0.273 OA
BRANCH  14  17
HETATM   17  C   UNL     1     -38.373 -48.828  13.581  1.00  0.00     0.083 C 
HETATM   18  C   UNL     1     -37.385 -47.972  14.380  1.00  0.00     0.032 C 
BRANCH  17  19
HETATM   19  C   UNL     1     -37.785 -50.211  13.199  1.00  0.00    -0.000 C 
HETATM   20  C   UNL     1     -38.706 -51.360  13.624  1.00  0.00     0.011 C 
HETATM   21  C   UNL     1     -37.537 -50.316  11.687  1.00  0.00     0.011 C 
ENDBRANCH  17  19
ENDBRANCH  14  17
ENDBRANCH  12  13
ENDBRANCH   1  12
TORSDOF 4
ENDMDL
MODEL 8
REMARK VINA RESULT:      -5.3      1.581      5.287
REMARK  4 active torsions:
REMARK  status: ('A' for Active; 'I' for Inactive)
REMARK    1  A    between atoms: C_2  and  C_4 
REMARK    2  A    between atoms: C_4  and  N_6 
REMARK       I    between atoms: N_6  and  C_7 
REMARK    3  A    between atoms: C_7  and  C_9 
REMARK    4  A    between atoms: C_9  and  C_10 
ROOT
HETATM    1  C   UNL     1     -46.180 -53.397  14.963  1.00  0.00     0.041 A 
HETATM    2  C   UNL     1     -46.642 -52.194  14.565  1.00  0.00     0.018 A 
HETATM    3  C   UNL     1     -46.739 -51.777  13.120  1.00  0.00     0.069 C 
HETATM    4  N   UNL     1     -47.077 -51.218  15.435  1.00  0.00    -0.349 N 
ATOM      5  HN  UNL     1     -47.413 -50.318  15.089  1.00  0.00     0.167 HD
HETATM    6  C   UNL     1     -47.048 -51.473  16.699  1.00  0.00     0.080 A 
HETATM    7  C   UNL     1     -47.551 -50.473  17.699  1.00  0.00     0.089 C 
HETATM    8  N   UNL     1     -46.581 -52.644  17.217  1.00  0.00    -0.313 N 
HETATM    9  C   UNL     1     -46.081 -53.631  16.425  1.00  0.00     0.255 A 
HETATM   10  O   UNL     1     -45.581 -54.652  16.888  1.00  0.00    -0.268 OA
HETATM   11  H   UNL     1     -46.528 -52.793  18.212  1.00  0.00     0.170 HD
ENDROOT
BRANCH   1  12
HETATM   12  C   UNL     1     -45.780 -54.552  14.094  1.00  0.00     0.149 C 
BRANCH  12  13
HETATM   13  C   UNL     1     -44.439 -54.270  13.444  1.00  0.00     0.222 C 
HETATM   14  N   UNL     1     -43.419 -53.998  14.330  1.00  0.00    -0.356 N 
HETATM   15  H   UNL     1     -43.620 -54.002  15.327  1.00  0.00     0.162 HD
HETATM   16  O   UNL     1     -44.297 -54.271  12.226  1.00  0.00    -0.273 OA
BRANCH  14  17
HETATM   17  C   UNL     1     -42.054 -53.738  13.877  1.00  0.00     0.083 C 
HETATM   18  C   UNL     1     -41.072 -54.440  14.821  1.00  0.00     0.032 C 
BRANCH  17  19
HETATM   19  C   UNL     1     -41.783 -52.216  13.764  1.00  0.00    -0.000 C 
HETATM   20  C   UNL     1     -41.878 -51.725  12.314  1.00  0.00     0.011 C 
HETATM   21  C   UNL     1     -42.765 -51.405  14.620  1.00  0.00     0.011 C 
ENDBRANCH  17  19
ENDBRANCH  14  17
ENDBRANCH  12  13
ENDBRANCH   1  12
TORSDOF 4
ENDMDL
MODEL 9
REMARK VINA RESULT:      -5.2      2.958      4.104
REMARK  4 active torsions:
REMARK  status: ('A' for Active; 'I' for Inactive)
REMARK    1  A    between atoms: C_2  and  C_4 
REMARK    2  A    between atoms: C_4  and  N_6 
REMARK       I    between atoms: N_6  and  C_7 
REMARK    3  A    between atoms: C_7  and  C_9 
REMARK    4  A    between atoms: C_9  and  C_10 
ROOT
HETATM    1  C   UNL     1     -41.241 -54.383  14.441  1.00  0.00     0.041 A 
HETATM    2  C   UNL     1     -41.293 -54.975  15.651  1.00  0.00     0.018 A 
HETATM    3  C   UNL     1     -42.577 -55.229  16.399  1.00  0.00     0.069 C 
HETATM    4  N   UNL     1     -40.180 -55.415  16.335  1.00  0.00    -0.349 N 
ATOM      5  HN  UNL     1     -40.266 -55.853  17.252  1.00  0.00     0.167 HD
HETATM    6  C   UNL     1     -39.025 -55.258  15.781  1.00  0.00     0.080 A 
HETATM    7  C   UNL     1     -37.777 -55.757  16.448  1.00  0.00     0.089 C 
HETATM    8  N   UNL     1     -38.849 -54.654  14.572  1.00  0.00    -0.313 N 
HETATM    9  C   UNL     1     -39.894 -54.143  13.866  1.00  0.00     0.255 A 
HETATM   10  O   UNL     1     -39.735 -53.522  12.819  1.00  0.00    -0.268 OA
HETATM   11  H   UNL     1     -37.929 -54.505  14.189  1.00  0.00     0.170 HD
ENDROOT
BRANCH   1  12
HETATM   12  C   UNL     1     -42.396 -53.963  13.581  1.00  0.00     0.149 C 
BRANCH  12  13
HETATM   13  C   UNL     1     -42.889 -52.594  14.012  1.00  0.00     0.222 C 
HETATM   14  N   UNL     1     -44.184 -52.573  14.481  1.00  0.00    -0.356 N 
HETATM   15  H   UNL     1     -44.711 -53.443  14.507  1.00  0.00     0.162 HD
HETATM   16  O   UNL     1     -42.182 -51.596  13.925  1.00  0.00    -0.273 OA
BRANCH  14  17
HETATM   17  C   UNL     1     -44.806 -51.345  14.969  1.00  0.00     0.083 C 
HETATM   18  C   UNL     1     -44.621 -51.261  16.488  1.00  0.00     0.032 C 
BRANCH  17  19
HETATM   19  C   UNL     1     -46.296 -51.267  14.548  1.00  0.00    -0.000 C 
HETATM   20  C   UNL     1     -46.492 -51.627  13.071  1.00  0.00     0.011 C 
HETATM   21  C   UNL     1     -47.170 -52.199  15.399  1.00  0.00     0.011 C 
ENDBRANCH  17  19
ENDBRANCH  14  17
ENDBRANCH  12  13
ENDBRANCH   1  12
TORSDOF 4
ENDMDL
