MODEL 1
REMARK VINA RESULT:      -5.7      0.000      0.000
REMARK  5 active torsions:
REMARK  status: ('A' for Active; 'I' for Inactive)
REMARK       I    between atoms: N_2  and  C_3 
REMARK    1  A    between atoms: C_3  and  C_5 
REMARK    2  A    between atoms: C_5  and  C_6 
REMARK    3  A    between atoms: C_9  and  C_10 
REMARK    4  A    between atoms: C_10  and  C_11 
REMARK    5  A    between atoms: C_11  and  C_12 
ROOT
HETATM    1  C   UNL     1     -41.044 -49.117  11.385  1.00  0.00     0.059 A 
HETATM    2  N   UNL     1     -41.951 -50.070  11.495  1.00  0.00    -0.356 N 
ATOM      3  HN  UNL     1     -42.901 -50.016  11.128  1.00  0.00     0.166 HD
HETATM    4  C   UNL     1     -41.424 -51.155  12.181  1.00  0.00     0.016 A 
HETATM    5  C   UNL     1     -40.115 -50.991  12.594  1.00  0.00     0.076 A 
HETATM    6  S   UNL     1     -39.523 -49.462  12.109  1.00  0.00    -0.086 SA
ENDROOT
BRANCH   4   7
HETATM    7  C   UNL     1     -42.282 -52.363  12.411  1.00  0.00     0.058 C 
BRANCH   7   8
HETATM    8  C   UNL     1     -43.122 -52.238  13.686  1.00  0.00     0.010 C 
BRANCH   8   9
HETATM    9  C   UNL     1     -44.467 -51.540  13.472  1.00  0.00    -0.014 C 
HETATM   10  C   UNL     1     -45.169 -51.231  14.804  1.00  0.00     0.004 C 
HETATM   11  C   UNL     1     -46.671 -51.377  14.546  1.00  0.00     0.000 C 
HETATM   12  C   UNL     1     -46.813 -51.682  13.063  1.00  0.00     0.000 C 
HETATM   13  C   UNL     1     -45.499 -52.357  12.697  1.00  0.00     0.004 C 
ENDBRANCH   8   9
ENDBRANCH   7   8
ENDBRANCH   4   7
BRANCH   1  14
HETATM   14  C   UNL     1     -41.283 -47.791  10.739  1.00  0.00     0.167 C 
BRANCH  14  15
HETATM   15  C   UNL     1     -42.646 -47.768  10.078  1.00  0.00     0.223 C 
HETATM   16  N   UNL     1     -42.624 -47.923   8.707  1.00  0.00    -0.365 N 
HETATM   17  C   UNL     1     -43.842 -47.860   7.942  1.00  0.00     0.149 C 
HETATM   18  H   UNL     1     -41.752 -47.674   8.243  1.00  0.00     0.161 HD
HETATM   19  O   UNL     1     -43.687 -47.689  10.728  1.00  0.00    -0.273 OA
ENDBRANCH  14  15
ENDBRANCH   1  14
TORSDOF 5
ENDMDL
MODEL 2
REMARK VINA RESULT:      -5.6      1.410      1.937
REMARK  5 active torsions:
REMARK  status: ('A' for Active; 'I' for Inactive)
REMARK       I    between atoms: N_2  and  C_3 
REMARK    1  A    between atoms: C_3  and  C_5 
REMARK    2  A    between atoms: C_5  and  C_6 
REMARK    3  A    between atoms: C_9  and  C_10 
REMARK    4  A    between atoms: C_10  and  C_11 
REMARK    5  A    between atoms: C_11  and  C_12 
ROOT
HETATM    1  C   UNL     1     -40.811 -51.044  12.025  1.00  0.00     0.059 A 
HETATM    2  N   UNL     1     -41.953 -51.705  11.967  1.00  0.00    -0.356 N 
ATOM      3  HN  UNL     1     -42.710 -51.505  11.313  1.00  0.00     0.166 HD
HETATM    4  C   UNL     1     -41.973 -52.711  12.923  1.00  0.00     0.016 A 
HETATM    5  C   UNL     1     -40.834 -52.781  13.704  1.00  0.00     0.076 A 
HETATM    6  S   UNL     1     -39.712 -51.581  13.233  1.00  0.00    -0.086 SA
ENDROOT
BRANCH   4   7
HETATM    7  C   UNL     1     -43.177 -53.599  13.028  1.00  0.00     0.058 C 
BRANCH   7   8
HETATM    8  C   UNL     1     -44.344 -53.089  12.176  1.00  0.00     0.010 C 
BRANCH   8   9
HETATM    9  C   UNL     1     -45.661 -52.966  12.946  1.00  0.00    -0.014 C 
HETATM   10  C   UNL     1     -46.079 -51.499  13.133  1.00  0.00     0.004 C 
HETATM   11  C   UNL     1     -46.774 -51.416  14.494  1.00  0.00     0.000 C 
HETATM   12  C   UNL     1     -46.820 -52.840  15.027  1.00  0.00     0.000 C 
HETATM   13  C   UNL     1     -45.628 -53.520  14.369  1.00  0.00     0.004 C 
ENDBRANCH   8   9
ENDBRANCH   7   8
ENDBRANCH   4   7
BRANCH   1  14
HETATM   14  C   UNL     1     -40.468 -49.871  11.165  1.00  0.00     0.167 C 
BRANCH  14  15
HETATM   15  C   UNL     1     -41.653 -48.935  11.058  1.00  0.00     0.223 C 
HETATM   16  N   UNL     1     -41.820 -48.355   9.816  1.00  0.00    -0.365 N 
HETATM   17  C   UNL     1     -42.871 -47.398   9.588  1.00  0.00     0.149 C 
HETATM   18  H   UNL     1     -40.987 -48.304   9.231  1.00  0.00     0.161 HD
HETATM   19  O   UNL     1     -42.441 -48.767  11.987  1.00  0.00    -0.273 OA
ENDBRANCH  14  15
ENDBRANCH   1  14
TORSDOF 5
ENDMDL
MODEL 3
REMARK VINA RESULT:      -5.6      1.843      2.434
REMARK  5 active torsions:
REMARK  status: ('A' for Active; 'I' for Inactive)
REMARK       I    between atoms: N_2  and  C_3 
REMARK    1  A    between atoms: C_3  and  C_5 
REMARK    2  A    between atoms: C_5  and  C_6 
REMARK    3  A    between atoms: C_9  and  C_10 
REMARK    4  A    between atoms: C_10  and  C_11 
REMARK    5  A    between atoms: C_11  and  C_12 
ROOT
HETATM    1  C   UNL     1     -42.390 -47.428  10.366  1.00  0.00     0.059 A 
HETATM    2  N   UNL     1     -42.948 -48.504  10.892  1.00  0.00    -0.356 N 
ATOM      3  HN  UNL     1     -43.862 -48.873  10.632  1.00  0.00     0.166 HD
HETATM    4  C   UNL     1     -42.110 -49.058  11.850  1.00  0.00     0.016 A 
HETATM    5  C   UNL     1     -40.925 -48.372  12.041  1.00  0.00     0.076 A 
HETATM    6  S   UNL     1     -40.845 -47.018  11.000  1.00  0.00    -0.086 SA
ENDROOT
BRANCH   4   7
HETATM    7  C   UNL     1     -42.542 -50.301  12.570  1.00  0.00     0.058 C 
BRANCH   7   8
HETATM    8  C   UNL     1     -43.310 -49.982  13.857  1.00  0.00     0.010 C 
BRANCH   8   9
HETATM    9  C   UNL     1     -44.349 -51.041  14.234  1.00  0.00    -0.014 C 
HETATM   10  C   UNL     1     -45.397 -51.232  13.127  1.00  0.00     0.004 C 
HETATM   11  C   UNL     1     -46.718 -51.549  13.831  1.00  0.00     0.000 C 
HETATM   12  C   UNL     1     -46.395 -51.618  15.315  1.00  0.00     0.000 C 
HETATM   13  C   UNL     1     -45.181 -50.713  15.472  1.00  0.00     0.004 C 
ENDBRANCH   8   9
ENDBRANCH   7   8
ENDBRANCH   4   7
BRANCH   1  14
HETATM   14  C   UNL     1     -43.032 -46.561   9.334  1.00  0.00     0.167 C 
BRANCH  14  15
HETATM   15  C   UNL     1     -44.332 -47.179   8.863  1.00  0.00     0.223 C 
HETATM   16  N   UNL     1     -45.470 -46.612   9.402  1.00  0.00    -0.365 N 
HETATM   17  C   UNL     1     -46.772 -47.140   9.089  1.00  0.00     0.149 C 
HETATM   18  H   UNL     1     -45.349 -46.125  10.288  1.00  0.00     0.161 HD
HETATM   19  O   UNL     1     -44.364 -48.068   8.013  1.00  0.00    -0.273 OA
ENDBRANCH  14  15
ENDBRANCH   1  14
TORSDOF 5
ENDMDL
MODEL 4
REMARK VINA RESULT:      -5.5      2.119      2.667
REMARK  5 active torsions:
REMARK  status: ('A' for Active; 'I' for Inactive)
REMARK       I    between atoms: N_2  and  C_3 
REMARK    1  A    between atoms: C_3  and  C_5 
REMARK    2  A    between atoms: C_5  and  C_6 
REMARK    3  A    between atoms: C_9  and  C_10 
REMARK    4  A    between atoms: C_10  and  C_11 
REMARK    5  A    between atoms: C_11  and  C_12 
ROOT
HETATM    1  C   UNL     1     -41.021 -48.789  11.239  1.00  0.00     0.059 A 
HETATM    2  N   UNL     1     -41.794 -49.856  11.334  1.00  0.00    -0.356 N 
ATOM      3  HN  UNL     1     -42.755 -49.911  10.997  1.00  0.00     0.166 HD
HETATM    4  C   UNL     1     -41.109 -50.890  11.956  1.00  0.00     0.016 A 
HETATM    5  C   UNL     1     -39.818 -50.574  12.337  1.00  0.00     0.076 A 
HETATM    6  S   UNL     1     -39.445 -48.964  11.903  1.00  0.00    -0.086 SA
ENDROOT
BRANCH   4   7
HETATM    7  C   UNL     1     -41.797 -52.207  12.158  1.00  0.00     0.058 C 
BRANCH   7   8
HETATM    8  C   UNL     1     -40.898 -53.222  12.872  1.00  0.00     0.010 C 
BRANCH   8   9
HETATM    9  C   UNL     1     -41.668 -54.357  13.551  1.00  0.00    -0.014 C 
HETATM   10  C   UNL     1     -43.188 -54.176  13.417  1.00  0.00     0.004 C 
HETATM   11  C   UNL     1     -43.805 -54.726  14.705  1.00  0.00     0.000 C 
HETATM   12  C   UNL     1     -42.648 -55.287  15.517  1.00  0.00     0.000 C 
HETATM   13  C   UNL     1     -41.446 -54.474  15.058  1.00  0.00     0.004 C 
ENDBRANCH   8   9
ENDBRANCH   7   8
ENDBRANCH   4   7
BRANCH   1  14
HETATM   14  C   UNL     1     -41.451 -47.481  10.659  1.00  0.00     0.167 C 
BRANCH  14  15
HETATM   15  C   UNL     1     -42.762 -47.641   9.919  1.00  0.00     0.223 C 
HETATM   16  N   UNL     1     -42.636 -47.865   8.562  1.00  0.00    -0.365 N 
HETATM   17  C   UNL     1     -43.801 -47.975   7.725  1.00  0.00     0.149 C 
HETATM   18  H   UNL     1     -41.766 -47.548   8.137  1.00  0.00     0.161 HD
HETATM   19  O   UNL     1     -43.846 -47.642  10.500  1.00  0.00    -0.273 OA
ENDBRANCH  14  15
ENDBRANCH   1  14
TORSDOF 5
ENDMDL
MODEL 5
REMARK VINA RESULT:      -5.4      2.302      3.592
REMARK  5 active torsions:
REMARK  status: ('A' for Active; 'I' for Inactive)
REMARK       I    between atoms: N_2  and  C_3 
REMARK    1  A    between atoms: C_3  and  C_5 
REMARK    2  A    between atoms: C_5  and  C_6 
REMARK    3  A    between atoms: C_9  and  C_10 
REMARK    4  A    between atoms: C_10  and  C_11 
REMARK    5  A    between atoms: C_11  and  C_12 
ROOT
HETATM    1  C   UNL     1     -41.847 -53.042  12.576  1.00  0.00     0.059 A 
HETATM    2  N   UNL     1     -43.149 -53.006  12.358  1.00  0.00    -0.356 N 
ATOM      3  HN  UNL     1     -43.604 -52.461  11.626  1.00  0.00     0.166 HD
HETATM    4  C   UNL     1     -43.809 -53.819  13.269  1.00  0.00     0.016 A 
HETATM    5  C   UNL     1     -42.981 -54.451  14.179  1.00  0.00     0.076 A 
HETATM    6  S   UNL     1     -41.349 -54.035  13.887  1.00  0.00    -0.086 SA
ENDROOT
BRANCH   4   7
HETATM    7  C   UNL     1     -45.303 -53.939  13.198  1.00  0.00     0.058 C 
BRANCH   7   8
HETATM    8  C   UNL     1     -45.962 -52.638  12.729  1.00  0.00     0.010 C 
BRANCH   8   9
HETATM    9  C   UNL     1     -46.467 -51.756  13.874  1.00  0.00    -0.014 C 
HETATM   10  C   UNL     1     -45.317 -51.017  14.577  1.00  0.00     0.004 C 
HETATM   11  C   UNL     1     -45.704 -50.919  16.054  1.00  0.00     0.000 C 
HETATM   12  C   UNL     1     -47.096 -51.522  16.163  1.00  0.00     0.000 C 
HETATM   13  C   UNL     1     -47.163 -52.509  15.007  1.00  0.00     0.004 C 
ENDBRANCH   8   9
ENDBRANCH   7   8
ENDBRANCH   4   7
BRANCH   1  14
HETATM   14  C   UNL     1     -40.839 -52.254  11.805  1.00  0.00     0.167 C 
BRANCH  14  15
HETATM   15  C   UNL     1     -41.180 -50.779  11.850  1.00  0.00     0.223 C 
HETATM   16  N   UNL     1     -40.626 -50.027  10.833  1.00  0.00    -0.365 N 
HETATM   17  C   UNL     1     -40.818 -48.601  10.787  1.00  0.00     0.149 C 
HETATM   18  H   UNL     1     -39.792 -50.415  10.395  1.00  0.00     0.161 HD
HETATM   19  O   UNL     1     -41.950 -50.310  12.687  1.00  0.00    -0.273 OA
ENDBRANCH  14  15
ENDBRANCH   1  14
TORSDOF 5
ENDMDL
MODEL 6
REMARK VINA RESULT:      -5.4      2.386      3.534
REMARK  5 active torsions:
REMARK  status: ('A' for Active; 'I' for Inactive)
REMARK       I    between atoms: N_2  and  C_3 
REMARK    1  A    between atoms: C_3  and  C_5 
REMARK    2  A    between atoms: C_5  and  C_6 
REMARK    3  A    between atoms: C_9  and  C_10 
REMARK    4  A    between atoms: C_10  and  C_11 
REMARK    5  A    between atoms: C_11  and  C_12 
ROOT
HETATM    1  C   UNL     1     -42.303 -47.130   9.945  1.00  0.00     0.059 A 
HETATM    2  N   UNL     1     -42.256 -48.425  10.201  1.00  0.00    -0.356 N 
ATOM      3  HN  UNL     1     -42.848 -49.129   9.761  1.00  0.00     0.166 HD
HETATM    4  C   UNL     1     -41.282 -48.688  11.154  1.00  0.00     0.016 A 
HETATM    5  C   UNL     1     -40.614 -47.569  11.616  1.00  0.00     0.076 A 
HETATM    6  S   UNL     1     -41.200 -46.163  10.840  1.00  0.00    -0.086 SA
ENDROOT
BRANCH   4   7
HETATM    7  C   UNL     1     -41.046 -50.104  11.589  1.00  0.00     0.058 C 
BRANCH   7   8
HETATM    8  C   UNL     1     -42.180 -50.631  12.473  1.00  0.00     0.010 C 
BRANCH   8   9
HETATM    9  C   UNL     1     -41.803 -51.872  13.285  1.00  0.00    -0.014 C 
HETATM   10  C   UNL     1     -40.687 -52.682  12.607  1.00  0.00     0.004 C 
HETATM   11  C   UNL     1     -40.969 -54.153  12.917  1.00  0.00     0.000 C 
HETATM   12  C   UNL     1     -42.184 -54.163  13.832  1.00  0.00     0.000 C 
HETATM   13  C   UNL     1     -42.930 -52.888  13.468  1.00  0.00     0.004 C 
ENDBRANCH   8   9
ENDBRANCH   7   8
ENDBRANCH   4   7
BRANCH   1  14
HETATM   14  C   UNL     1     -43.265 -46.490   8.997  1.00  0.00     0.167 C 
BRANCH  14  15
HETATM   15  C   UNL     1     -44.065 -47.548   8.267  1.00  0.00     0.223 C 
HETATM   16  N   UNL     1     -45.392 -47.629   8.639  1.00  0.00    -0.365 N 
HETATM   17  C   UNL     1     -46.254 -48.631   8.069  1.00  0.00     0.149 C 
HETATM   18  H   UNL     1     -45.618 -47.270   9.565  1.00  0.00     0.161 HD
HETATM   19  O   UNL     1     -43.580 -48.228   7.363  1.00  0.00    -0.273 OA
ENDBRANCH  14  15
ENDBRANCH   1  14
TORSDOF 5
ENDMDL
MODEL 7
REMARK VINA RESULT:      -4.9      2.217      2.750
REMARK  5 active torsions:
REMARK  status: ('A' for Active; 'I' for Inactive)
REMARK       I    between atoms: N_2  and  C_3 
REMARK    1  A    between atoms: C_3  and  C_5 
REMARK    2  A    between atoms: C_5  and  C_6 
REMARK    3  A    between atoms: C_9  and  C_10 
REMARK    4  A    between atoms: C_10  and  C_11 
REMARK    5  A    between atoms: C_11  and  C_12 
ROOT
HETATM    1  C   UNL     1     -39.502 -50.942  12.439  1.00  0.00     0.059 A 
HETATM    2  N   UNL     1     -40.333 -51.903  12.078  1.00  0.00    -0.356 N 
ATOM      3  HN  UNL     1     -40.817 -51.950  11.182  1.00  0.00     0.166 HD
HETATM    4  C   UNL     1     -40.450 -52.841  13.095  1.00  0.00     0.016 A 
HETATM    5  C   UNL     1     -39.705 -52.557  14.225  1.00  0.00     0.076 A 
HETATM    6  S   UNL     1     -38.833 -51.102  14.014  1.00  0.00    -0.086 SA
ENDROOT
BRANCH   4   7
HETATM    7  C   UNL     1     -41.339 -54.032  12.894  1.00  0.00     0.058 C 
BRANCH   7   8
HETATM    8  C   UNL     1     -42.296 -54.240  14.072  1.00  0.00     0.010 C 
BRANCH   8   9
HETATM    9  C   UNL     1     -43.773 -54.263  13.669  1.00  0.00    -0.014 C 
HETATM   10  C   UNL     1     -44.046 -53.373  12.446  1.00  0.00     0.004 C 
HETATM   11  C   UNL     1     -45.445 -52.785  12.642  1.00  0.00     0.000 C 
HETATM   12  C   UNL     1     -45.985 -53.406  13.921  1.00  0.00     0.000 C 
HETATM   13  C   UNL     1     -44.737 -53.733  14.729  1.00  0.00     0.004 C 
ENDBRANCH   8   9
ENDBRANCH   7   8
ENDBRANCH   4   7
BRANCH   1  14
HETATM   14  C   UNL     1     -39.174 -49.749  11.602  1.00  0.00     0.167 C 
BRANCH  14  15
HETATM   15  C   UNL     1     -40.407 -48.892  11.403  1.00  0.00     0.223 C 
HETATM   16  N   UNL     1     -40.155 -47.614  10.948  1.00  0.00    -0.365 N 
HETATM   17  C   UNL     1     -41.229 -46.672  10.773  1.00  0.00     0.149 C 
HETATM   18  H   UNL     1     -39.222 -47.250  11.133  1.00  0.00     0.161 HD
HETATM   19  O   UNL     1     -41.544 -49.333  11.568  1.00  0.00    -0.273 OA
ENDBRANCH  14  15
ENDBRANCH   1  14
TORSDOF 5
ENDMDL
MODEL 8
REMARK VINA RESULT:      -4.9      4.152      5.966
REMARK  5 active torsions:
REMARK  status: ('A' for Active; 'I' for Inactive)
REMARK       I    between atoms: N_2  and  C_3 
REMARK    1  A    between atoms: C_3  and  C_5 
REMARK    2  A    between atoms: C_5  and  C_6 
REMARK    3  A    between atoms: C_9  and  C_10 
REMARK    4  A    between atoms: C_10  and  C_11 
REMARK    5  A    between atoms: C_11  and  C_12 
ROOT
HETATM    1  C   UNL     1     -40.322 -53.193  13.528  1.00  0.00     0.059 A 
HETATM    2  N   UNL     1     -41.406 -53.912  13.752  1.00  0.00    -0.356 N 
ATOM      3  HN  UNL     1     -41.448 -54.731  14.359  1.00  0.00     0.166 HD
HETATM    4  C   UNL     1     -42.480 -53.392  13.044  1.00  0.00     0.016 A 
HETATM    5  C   UNL     1     -42.178 -52.283  12.276  1.00  0.00     0.076 A 
HETATM    6  S   UNL     1     -40.527 -51.871  12.448  1.00  0.00    -0.086 SA
ENDROOT
BRANCH   4   7
HETATM    7  C   UNL     1     -43.823 -54.050  13.161  1.00  0.00     0.058 C 
BRANCH   7   8
HETATM    8  C   UNL     1     -44.926 -53.233  12.480  1.00  0.00     0.010 C 
BRANCH   8   9
HETATM    9  C   UNL     1     -46.126 -52.944  13.384  1.00  0.00    -0.014 C 
HETATM   10  C   UNL     1     -46.316 -51.437  13.617  1.00  0.00     0.004 C 
HETATM   11  C   UNL     1     -46.848 -51.283  15.043  1.00  0.00     0.000 C 
HETATM   12  C   UNL     1     -47.034 -52.695  15.575  1.00  0.00     0.000 C 
HETATM   13  C   UNL     1     -46.023 -53.521  14.795  1.00  0.00     0.004 C 
ENDBRANCH   8   9
ENDBRANCH   7   8
ENDBRANCH   4   7
BRANCH   1  14
HETATM   14  C   UNL     1     -38.974 -53.493  14.098  1.00  0.00     0.167 C 
BRANCH  14  15
HETATM   15  C   UNL     1     -39.114 -54.191  15.435  1.00  0.00     0.223 C 
HETATM   16  N   UNL     1     -38.343 -55.327  15.577  1.00  0.00    -0.365 N 
HETATM   17  C   UNL     1     -38.422 -56.124  16.773  1.00  0.00     0.149 C 
HETATM   18  H   UNL     1     -38.060 -55.785  14.712  1.00  0.00     0.161 HD
HETATM   19  O   UNL     1     -39.807 -53.734  16.343  1.00  0.00    -0.273 OA
ENDBRANCH  14  15
ENDBRANCH   1  14
TORSDOF 5
ENDMDL
MODEL 9
REMARK VINA RESULT:      -4.9      4.231      4.726
REMARK  5 active torsions:
REMARK  status: ('A' for Active; 'I' for Inactive)
REMARK       I    between atoms: N_2  and  C_3 
REMARK    1  A    between atoms: C_3  and  C_5 
REMARK    2  A    between atoms: C_5  and  C_6 
REMARK    3  A    between atoms: C_9  and  C_10 
REMARK    4  A    between atoms: C_10  and  C_11 
REMARK    5  A    between atoms: C_11  and  C_12 
ROOT
HETATM    1  C   UNL     1     -38.904 -51.814  14.669  1.00  0.00     0.059 A 
HETATM    2  N   UNL     1     -39.619 -52.499  13.796  1.00  0.00    -0.356 N 
ATOM      3  HN  UNL     1     -39.531 -52.425  12.783  1.00  0.00     0.166 HD
HETATM    4  C   UNL     1     -40.508 -53.336  14.458  1.00  0.00     0.016 A 
HETATM    5  C   UNL     1     -40.454 -53.253  15.837  1.00  0.00     0.076 A 
HETATM    6  S   UNL     1     -39.267 -52.122  16.321  1.00  0.00    -0.086 SA
ENDROOT
BRANCH   4   7
HETATM    7  C   UNL     1     -41.416 -54.220  13.657  1.00  0.00     0.058 C 
BRANCH   7   8
HETATM    8  C   UNL     1     -42.427 -53.414  12.836  1.00  0.00     0.010 C 
BRANCH   8   9
HETATM    9  C   UNL     1     -43.847 -53.985  12.874  1.00  0.00    -0.014 C 
HETATM   10  C   UNL     1     -44.911 -52.878  12.794  1.00  0.00     0.004 C 
HETATM   11  C   UNL     1     -46.089 -53.347  13.650  1.00  0.00     0.000 C 
HETATM   12  C   UNL     1     -45.724 -54.741  14.137  1.00  0.00     0.000 C 
HETATM   13  C   UNL     1     -44.203 -54.740  14.153  1.00  0.00     0.004 C 
ENDBRANCH   8   9
ENDBRANCH   7   8
ENDBRANCH   4   7
BRANCH   1  14
HETATM   14  C   UNL     1     -37.879 -50.790  14.304  1.00  0.00     0.167 C 
BRANCH  14  15
HETATM   15  C   UNL     1     -37.446 -50.970  12.864  1.00  0.00     0.223 C 
HETATM   16  N   UNL     1     -37.573 -49.844  12.077  1.00  0.00    -0.365 N 
HETATM   17  C   UNL     1     -37.256 -49.889  10.674  1.00  0.00     0.149 C 
HETATM   18  H   UNL     1     -38.250 -49.151  12.395  1.00  0.00     0.161 HD
HETATM   19  O   UNL     1     -36.952 -52.021  12.456  1.00  0.00    -0.273 OA
ENDBRANCH  14  15
ENDBRANCH   1  14
TORSDOF 5
ENDMDL
