MODEL 1
REMARK VINA RESULT:      -6.1      0.000      0.000
REMARK  3 active torsions:
REMARK  status: ('A' for Active; 'I' for Inactive)
REMARK    1  A    between atoms: C_2  and  C_4 
REMARK    2  A    between atoms: C_6  and  C_12 
REMARK    3  A    between atoms: C_8  and  O_9 
REMARK       I    between atoms: C_12  and  N_14 
ROOT
HETATM    1  C   UNL     1     -40.958 -54.627  14.973  1.00  0.00     0.015 A 
HETATM    2  C   UNL     1     -42.337 -54.660  15.135  1.00  0.00     0.042 A 
HETATM    3  C   UNL     1     -43.149 -54.265  14.069  1.00  0.00     0.040 A 
HETATM    4  C   UNL     1     -42.565 -53.812  12.888  1.00  0.00     0.073 A 
HETATM    5  C   UNL     1     -41.188 -53.820  12.819  1.00  0.00     0.141 A 
HETATM    6  N   UNL     1     -40.382 -54.216  13.820  1.00  0.00    -0.340 N 
ATOM      7  HN  UNL     1     -39.367 -54.207  13.713  1.00  0.00     0.167 HD
ENDROOT
BRANCH   3   8
HETATM    8  C   UNL     1     -44.631 -54.265  14.202  1.00  0.00     0.277 C 
HETATM    9  O   UNL     1     -45.207 -55.351  14.310  1.00  0.00    -0.265 OA
HETATM   10  N   UNL     1     -45.290 -53.049  14.139  1.00  0.00    -0.222 N 
HETATM   11  C   UNL     1     -46.704 -52.941  14.427  1.00  0.00     0.162 C 
HETATM   12  O   UNL     1     -44.594 -51.950  14.720  1.00  0.00    -0.275 OA
HETATM   13  C   UNL     1     -46.906 -51.553  14.969  1.00  0.00     0.051 C 
HETATM   14  C   UNL     1     -45.538 -51.186  15.478  1.00  0.00     0.203 C 
ENDBRANCH   3   8
BRANCH   1  15
HETATM   15  C   UNL     1     -40.059 -55.041  16.119  1.00  0.00     0.027 C 
HETATM   16  C   UNL     1     -40.604 -56.280  16.831  1.00  0.00     0.016 C 
HETATM   17  C   UNL     1     -38.630 -55.272  15.629  1.00  0.00     0.016 C 
ENDBRANCH   1  15
BRANCH   5  18
HETATM   18  O   UNL     1     -40.533 -53.419  11.691  1.00  0.00    -0.346 OA
HETATM   19  H   UNL     1     -41.038 -53.727  10.923  1.00  0.00     0.219 HD
ENDBRANCH   5  18
TORSDOF 3
ENDMDL
MODEL 2
REMARK VINA RESULT:      -5.7      1.803      5.314
REMARK  3 active torsions:
REMARK  status: ('A' for Active; 'I' for Inactive)
REMARK    1  A    between atoms: C_2  and  C_4 
REMARK    2  A    between atoms: C_6  and  C_12 
REMARK    3  A    between atoms: C_8  and  O_9 
REMARK       I    between atoms: C_12  and  N_14 
ROOT
HETATM    1  C   UNL     1     -44.164 -52.179  13.462  1.00  0.00     0.015 A 
HETATM    2  C   UNL     1     -43.945 -53.190  14.388  1.00  0.00     0.042 A 
HETATM    3  C   UNL     1     -42.823 -54.009  14.237  1.00  0.00     0.040 A 
HETATM    4  C   UNL     1     -41.975 -53.823  13.147  1.00  0.00     0.073 A 
HETATM    5  C   UNL     1     -42.272 -52.790  12.284  1.00  0.00     0.141 A 
HETATM    6  N   UNL     1     -43.330 -51.972  12.417  1.00  0.00    -0.340 N 
ATOM      7  HN  UNL     1     -43.500 -51.219  11.750  1.00  0.00     0.167 HD
ENDROOT
BRANCH   3   8
HETATM    8  C   UNL     1     -42.557 -55.117  15.193  1.00  0.00     0.277 C 
HETATM    9  O   UNL     1     -43.394 -56.018  15.291  1.00  0.00    -0.265 OA
HETATM   10  N   UNL     1     -41.410 -55.049  15.967  1.00  0.00    -0.222 N 
HETATM   11  C   UNL     1     -40.990 -56.158  16.794  1.00  0.00     0.162 C 
HETATM   12  O   UNL     1     -40.278 -54.470  15.323  1.00  0.00    -0.275 OA
HETATM   13  C   UNL     1     -39.491 -56.065  16.874  1.00  0.00     0.051 C 
HETATM   14  C   UNL     1     -39.135 -55.271  15.646  1.00  0.00     0.203 C 
ENDBRANCH   3   8
BRANCH   1  15
HETATM   15  C   UNL     1     -45.379 -51.286  13.601  1.00  0.00     0.027 C 
HETATM   16  C   UNL     1     -46.453 -51.649  12.575  1.00  0.00     0.016 C 
HETATM   17  C   UNL     1     -45.934 -51.346  15.023  1.00  0.00     0.016 C 
ENDBRANCH   1  15
BRANCH   5  18
HETATM   18  O   UNL     1     -41.480 -52.520  11.206  1.00  0.00    -0.346 OA
HETATM   19  H   UNL     1     -40.561 -52.471  11.510  1.00  0.00     0.219 HD
ENDBRANCH   5  18
TORSDOF 3
ENDMDL
MODEL 3
REMARK VINA RESULT:      -5.7      1.649      5.737
REMARK  3 active torsions:
REMARK  status: ('A' for Active; 'I' for Inactive)
REMARK    1  A    between atoms: C_2  and  C_4 
REMARK    2  A    between atoms: C_6  and  C_12 
REMARK    3  A    between atoms: C_8  and  O_9 
REMARK       I    between atoms: C_12  and  N_14 
ROOT
HETATM    1  C   UNL     1     -45.900 -52.333  15.023  1.00  0.00     0.015 A 
HETATM    2  C   UNL     1     -44.659 -52.275  14.404  1.00  0.00     0.042 A 
HETATM    3  C   UNL     1     -44.186 -53.408  13.738  1.00  0.00     0.040 A 
HETATM    4  C   UNL     1     -44.944 -54.577  13.741  1.00  0.00     0.073 A 
HETATM    5  C   UNL     1     -46.166 -54.537  14.378  1.00  0.00     0.141 A 
HETATM    6  N   UNL     1     -46.657 -53.455  15.007  1.00  0.00    -0.340 N 
ATOM      7  HN  UNL     1     -47.572 -53.479  15.459  1.00  0.00     0.167 HD
ENDROOT
BRANCH   3   8
HETATM    8  C   UNL     1     -42.853 -53.399  13.076  1.00  0.00     0.277 C 
HETATM    9  O   UNL     1     -42.711 -52.715  12.059  1.00  0.00    -0.265 OA
HETATM   10  N   UNL     1     -41.858 -54.204  13.605  1.00  0.00    -0.222 N 
HETATM   11  C   UNL     1     -40.494 -54.128  13.130  1.00  0.00     0.162 C 
HETATM   12  O   UNL     1     -41.869 -54.331  15.024  1.00  0.00    -0.275 OA
HETATM   13  C   UNL     1     -39.631 -54.515  14.300  1.00  0.00     0.051 C 
HETATM   14  C   UNL     1     -40.516 -54.227  15.482  1.00  0.00     0.203 C 
ENDBRANCH   3   8
BRANCH   1  15
HETATM   15  C   UNL     1     -46.428 -51.120  15.760  1.00  0.00     0.027 C 
HETATM   16  C   UNL     1     -47.673 -51.467  16.578  1.00  0.00     0.016 C 
HETATM   17  C   UNL     1     -45.342 -50.508  16.643  1.00  0.00     0.016 C 
ENDBRANCH   1  15
BRANCH   5  18
HETATM   18  O   UNL     1     -46.985 -55.628  14.406  1.00  0.00    -0.346 OA
HETATM   19  H   UNL     1     -47.428 -55.651  15.268  1.00  0.00     0.219 HD
ENDBRANCH   5  18
TORSDOF 3
ENDMDL
MODEL 4
REMARK VINA RESULT:      -5.6      2.628      5.559
REMARK  3 active torsions:
REMARK  status: ('A' for Active; 'I' for Inactive)
REMARK    1  A    between atoms: C_2  and  C_4 
REMARK    2  A    between atoms: C_6  and  C_12 
REMARK    3  A    between atoms: C_8  and  O_9 
REMARK       I    between atoms: C_12  and  N_14 
ROOT
HETATM    1  C   UNL     1     -42.499 -54.507  14.205  1.00  0.00     0.015 A 
HETATM    2  C   UNL     1     -41.533 -54.799  15.158  1.00  0.00     0.042 A 
HETATM    3  C   UNL     1     -40.190 -54.576  14.843  1.00  0.00     0.040 A 
HETATM    4  C   UNL     1     -39.846 -54.108  13.577  1.00  0.00     0.073 A 
HETATM    5  C   UNL     1     -40.876 -53.842  12.700  1.00  0.00     0.141 A 
HETATM    6  N   UNL     1     -42.178 -54.024  12.982  1.00  0.00    -0.340 N 
ATOM      7  HN  UNL     1     -42.901 -53.806  12.296  1.00  0.00     0.167 HD
ENDROOT
BRANCH   3   8
HETATM    8  C   UNL     1     -39.117 -54.892  15.825  1.00  0.00     0.277 C 
HETATM    9  O   UNL     1     -38.496 -55.950  15.692  1.00  0.00    -0.265 OA
HETATM   10  N   UNL     1     -38.911 -54.007  16.871  1.00  0.00    -0.222 N 
HETATM   11  C   UNL     1     -37.785 -54.149  17.768  1.00  0.00     0.162 C 
HETATM   12  O   UNL     1     -39.104 -52.633  16.550  1.00  0.00    -0.275 OA
HETATM   13  C   UNL     1     -37.459 -52.757  18.237  1.00  0.00     0.051 C 
HETATM   14  C   UNL     1     -38.037 -51.890  17.151  1.00  0.00     0.203 C 
ENDBRANCH   3   8
BRANCH   1  15
HETATM   15  C   UNL     1     -43.960 -54.751  14.521  1.00  0.00     0.027 C 
HETATM   16  C   UNL     1     -44.397 -53.965  15.758  1.00  0.00     0.016 C 
HETATM   17  C   UNL     1     -44.838 -54.413  13.316  1.00  0.00     0.016 C 
ENDBRANCH   1  15
BRANCH   5  18
HETATM   18  O   UNL     1     -40.632 -53.355  11.449  1.00  0.00    -0.346 OA
HETATM   19  H   UNL     1     -40.043 -53.975  10.992  1.00  0.00     0.219 HD
ENDBRANCH   5  18
TORSDOF 3
ENDMDL
MODEL 5
REMARK VINA RESULT:      -5.6      2.597      5.919
REMARK  3 active torsions:
REMARK  status: ('A' for Active; 'I' for Inactive)
REMARK    1  A    between atoms: C_2  and  C_4 
REMARK    2  A    between atoms: C_6  and  C_12 
REMARK    3  A    between atoms: C_8  and  O_9 
REMARK       I    between atoms: C_12  and  N_14 
ROOT
HETATM    1  C   UNL     1     -42.537 -54.444  14.320  1.00  0.00     0.015 A 
HETATM    2  C   UNL     1     -41.623 -54.499  15.364  1.00  0.00     0.042 A 
HETATM    3  C   UNL     1     -40.276 -54.247  15.092  1.00  0.00     0.040 A 
HETATM    4  C   UNL     1     -39.872 -53.987  13.785  1.00  0.00     0.073 A 
HETATM    5  C   UNL     1     -40.852 -53.947  12.816  1.00  0.00     0.141 A 
HETATM    6  N   UNL     1     -42.159 -54.163  13.051  1.00  0.00    -0.340 N 
ATOM      7  HN  UNL     1     -42.844 -54.116  12.296  1.00  0.00     0.167 HD
ENDROOT
BRANCH   3   8
HETATM    8  C   UNL     1     -39.258 -54.314  16.176  1.00  0.00     0.277 C 
HETATM    9  O   UNL     1     -38.913 -53.261  16.719  1.00  0.00    -0.265 OA
HETATM   10  N   UNL     1     -38.708 -55.549  16.477  1.00  0.00    -0.222 N 
HETATM   11  C   UNL     1     -37.842 -55.731  17.622  1.00  0.00     0.162 C 
HETATM   12  O   UNL     1     -39.600 -56.654  16.366  1.00  0.00    -0.275 OA
HETATM   13  C   UNL     1     -38.034 -57.158  18.058  1.00  0.00     0.051 C 
HETATM   14  C   UNL     1     -39.389 -57.502  17.501  1.00  0.00     0.203 C 
ENDBRANCH   3   8
BRANCH   1  15
HETATM   15  C   UNL     1     -44.000 -54.723  14.589  1.00  0.00     0.027 C 
HETATM   16  C   UNL     1     -44.558 -53.777  15.652  1.00  0.00     0.016 C 
HETATM   17  C   UNL     1     -44.813 -54.642  13.298  1.00  0.00     0.016 C 
ENDBRANCH   1  15
BRANCH   5  18
HETATM   18  O   UNL     1     -40.550 -53.672  11.515  1.00  0.00    -0.346 OA
HETATM   19  H   UNL     1     -41.006 -52.854  11.264  1.00  0.00     0.219 HD
ENDBRANCH   5  18
TORSDOF 3
ENDMDL
MODEL 6
REMARK VINA RESULT:      -5.5      3.368      4.902
REMARK  3 active torsions:
REMARK  status: ('A' for Active; 'I' for Inactive)
REMARK    1  A    between atoms: C_2  and  C_4 
REMARK    2  A    between atoms: C_6  and  C_12 
REMARK    3  A    between atoms: C_8  and  O_9 
REMARK       I    between atoms: C_12  and  N_14 
ROOT
HETATM    1  C   UNL     1     -41.230 -49.910  11.755  1.00  0.00     0.015 A 
HETATM    2  C   UNL     1     -42.070 -49.845  12.858  1.00  0.00     0.042 A 
HETATM    3  C   UNL     1     -42.413 -51.030  13.514  1.00  0.00     0.040 A 
HETATM    4  C   UNL     1     -41.941 -52.248  13.029  1.00  0.00     0.073 A 
HETATM    5  C   UNL     1     -41.108 -52.212  11.931  1.00  0.00     0.141 A 
HETATM    6  N   UNL     1     -40.743 -51.085  11.294  1.00  0.00    -0.340 N 
ATOM      7  HN  UNL     1     -40.118 -51.116  10.488  1.00  0.00     0.167 HD
ENDROOT
BRANCH   3   8
HETATM    8  C   UNL     1     -43.326 -51.011  14.688  1.00  0.00     0.277 C 
HETATM    9  O   UNL     1     -42.944 -50.445  15.716  1.00  0.00    -0.265 OA
HETATM   10  N   UNL     1     -44.534 -51.682  14.585  1.00  0.00    -0.222 N 
HETATM   11  C   UNL     1     -45.548 -51.573  15.611  1.00  0.00     0.162 C 
HETATM   12  O   UNL     1     -45.143 -51.639  13.298  1.00  0.00    -0.275 OA
HETATM   13  C   UNL     1     -46.864 -51.760  14.908  1.00  0.00     0.051 C 
HETATM   14  C   UNL     1     -46.542 -51.393  13.484  1.00  0.00     0.203 C 
ENDBRANCH   3   8
BRANCH   1  15
HETATM   15  C   UNL     1     -40.853 -48.639  11.023  1.00  0.00     0.027 C 
HETATM   16  C   UNL     1     -42.049 -48.063  10.263  1.00  0.00     0.016 C 
HETATM   17  C   UNL     1     -40.268 -47.611  11.991  1.00  0.00     0.016 C 
ENDBRANCH   1  15
BRANCH   5  18
HETATM   18  O   UNL     1     -40.579 -53.355  11.407  1.00  0.00    -0.346 OA
HETATM   19  H   UNL     1     -39.994 -53.109  10.674  1.00  0.00     0.219 HD
ENDBRANCH   5  18
TORSDOF 3
ENDMDL
MODEL 7
REMARK VINA RESULT:      -5.5      1.742      5.518
REMARK  3 active torsions:
REMARK  status: ('A' for Active; 'I' for Inactive)
REMARK    1  A    between atoms: C_2  and  C_4 
REMARK    2  A    between atoms: C_6  and  C_12 
REMARK    3  A    between atoms: C_8  and  O_9 
REMARK       I    between atoms: C_12  and  N_14 
ROOT
HETATM    1  C   UNL     1     -45.893 -51.837  14.966  1.00  0.00     0.015 A 
HETATM    2  C   UNL     1     -44.846 -52.667  15.343  1.00  0.00     0.042 A 
HETATM    3  C   UNL     1     -44.303 -53.537  14.394  1.00  0.00     0.040 A 
HETATM    4  C   UNL     1     -44.843 -53.582  13.110  1.00  0.00     0.073 A 
HETATM    5  C   UNL     1     -45.878 -52.716  12.828  1.00  0.00     0.141 A 
HETATM    6  N   UNL     1     -46.405 -51.853  13.713  1.00  0.00    -0.340 N 
ATOM      7  HN  UNL     1     -47.169 -51.229  13.449  1.00  0.00     0.167 HD
ENDROOT
BRANCH   3   8
HETATM    8  C   UNL     1     -43.193 -54.459  14.757  1.00  0.00     0.277 C 
HETATM    9  O   UNL     1     -43.469 -55.635  15.009  1.00  0.00    -0.265 OA
HETATM   10  N   UNL     1     -41.914 -53.934  14.849  1.00  0.00    -0.222 N 
HETATM   11  C   UNL     1     -40.760 -54.787  15.029  1.00  0.00     0.162 C 
HETATM   12  O   UNL     1     -41.613 -52.903  13.913  1.00  0.00    -0.275 OA
HETATM   13  C   UNL     1     -39.612 -54.063  14.380  1.00  0.00     0.051 C 
HETATM   14  C   UNL     1     -40.298 -53.149  13.401  1.00  0.00     0.203 C 
ENDBRANCH   3   8
BRANCH   1  15
HETATM   15  C   UNL     1     -46.504 -50.893  15.981  1.00  0.00     0.027 C 
HETATM   16  C   UNL     1     -47.701 -51.535  16.683  1.00  0.00     0.016 C 
HETATM   17  C   UNL     1     -45.455 -50.433  16.992  1.00  0.00     0.016 C 
ENDBRANCH   1  15
BRANCH   5  18
HETATM   18  O   UNL     1     -46.447 -52.675  11.589  1.00  0.00    -0.346 OA
HETATM   19  H   UNL     1     -46.970 -53.482  11.470  1.00  0.00     0.219 HD
ENDBRANCH   5  18
TORSDOF 3
ENDMDL
MODEL 8
REMARK VINA RESULT:      -5.5      4.539      6.002
REMARK  3 active torsions:
REMARK  status: ('A' for Active; 'I' for Inactive)
REMARK    1  A    between atoms: C_2  and  C_4 
REMARK    2  A    between atoms: C_6  and  C_12 
REMARK    3  A    between atoms: C_8  and  O_9 
REMARK       I    between atoms: C_12  and  N_14 
ROOT
HETATM    1  C   UNL     1     -43.416 -51.970  12.979  1.00  0.00     0.015 A 
HETATM    2  C   UNL     1     -43.132 -50.616  13.093  1.00  0.00     0.042 A 
HETATM    3  C   UNL     1     -41.934 -50.134  12.560  1.00  0.00     0.040 A 
HETATM    4  C   UNL     1     -41.038 -51.018  11.964  1.00  0.00     0.073 A 
HETATM    5  C   UNL     1     -41.410 -52.344  11.892  1.00  0.00     0.141 A 
HETATM    6  N   UNL     1     -42.565 -52.833  12.376  1.00  0.00    -0.340 N 
ATOM      7  HN  UNL     1     -42.793 -53.824  12.291  1.00  0.00     0.167 HD
ENDROOT
BRANCH   3   8
HETATM    8  C   UNL     1     -41.577 -48.694  12.675  1.00  0.00     0.277 C 
HETATM    9  O   UNL     1     -40.638 -48.382  13.412  1.00  0.00    -0.265 OA
HETATM   10  N   UNL     1     -42.356 -47.773  11.994  1.00  0.00    -0.222 N 
HETATM   11  C   UNL     1     -41.980 -46.379  11.914  1.00  0.00     0.162 C 
HETATM   12  O   UNL     1     -42.851 -48.213  10.732  1.00  0.00    -0.275 OA
HETATM   13  C   UNL     1     -42.544 -45.876  10.613  1.00  0.00     0.051 C 
HETATM   14  C   UNL     1     -42.695 -47.135   9.802  1.00  0.00     0.203 C 
ENDBRANCH   3   8
BRANCH   1  15
HETATM   15  C   UNL     1     -44.704 -52.517  13.559  1.00  0.00     0.027 C 
HETATM   16  C   UNL     1     -45.899 -51.646  13.172  1.00  0.00     0.016 C 
HETATM   17  C   UNL     1     -44.917 -53.968  13.130  1.00  0.00     0.016 C 
ENDBRANCH   1  15
BRANCH   5  18
HETATM   18  O   UNL     1     -40.606 -53.273  11.301  1.00  0.00    -0.346 OA
HETATM   19  H   UNL     1     -40.605 -53.109  10.346  1.00  0.00     0.219 HD
ENDBRANCH   5  18
TORSDOF 3
ENDMDL
MODEL 9
REMARK VINA RESULT:      -5.2      2.335      3.538
REMARK  3 active torsions:
REMARK  status: ('A' for Active; 'I' for Inactive)
REMARK    1  A    between atoms: C_2  and  C_4 
REMARK    2  A    between atoms: C_6  and  C_12 
REMARK    3  A    between atoms: C_8  and  O_9 
REMARK       I    between atoms: C_12  and  N_14 
ROOT
HETATM    1  C   UNL     1     -40.520 -51.604  12.781  1.00  0.00     0.015 A 
HETATM    2  C   UNL     1     -41.892 -51.722  12.603  1.00  0.00     0.042 A 
HETATM    3  C   UNL     1     -42.520 -52.910  12.985  1.00  0.00     0.040 A 
HETATM    4  C   UNL     1     -41.759 -53.959  13.496  1.00  0.00     0.073 A 
HETATM    5  C   UNL     1     -40.404 -53.747  13.641  1.00  0.00     0.141 A 
HETATM    6  N   UNL     1     -39.776 -52.607  13.304  1.00  0.00    -0.340 N 
ATOM      7  HN  UNL     1     -38.770 -52.501  13.437  1.00  0.00     0.167 HD
ENDROOT
BRANCH   3   8
HETATM    8  C   UNL     1     -43.985 -53.090  12.796  1.00  0.00     0.277 C 
HETATM    9  O   UNL     1     -44.378 -54.097  12.202  1.00  0.00    -0.265 OA
HETATM   10  N   UNL     1     -44.827 -52.086  13.246  1.00  0.00    -0.222 N 
HETATM   11  C   UNL     1     -46.264 -52.255  13.255  1.00  0.00     0.162 C 
HETATM   12  O   UNL     1     -44.409 -51.434  14.441  1.00  0.00    -0.275 OA
HETATM   13  C   UNL     1     -46.768 -51.404  14.388  1.00  0.00     0.051 C 
HETATM   14  C   UNL     1     -45.561 -51.276  15.278  1.00  0.00     0.203 C 
ENDBRANCH   3   8
BRANCH   1  15
HETATM   15  C   UNL     1     -39.817 -50.329  12.365  1.00  0.00     0.027 C 
HETATM   16  C   UNL     1     -38.321 -50.565  12.153  1.00  0.00     0.016 C 
HETATM   17  C   UNL     1     -40.464 -49.738  11.113  1.00  0.00     0.016 C 
ENDBRANCH   1  15
BRANCH   5  18
HETATM   18  O   UNL     1     -39.589 -54.710  14.158  1.00  0.00    -0.346 OA
HETATM   19  H   UNL     1     -39.400 -54.483  15.081  1.00  0.00     0.219 HD
ENDBRANCH   5  18
TORSDOF 3
ENDMDL
