MODEL 1
REMARK VINA RESULT:      -5.8      0.000      0.000
REMARK  4 active torsions:
REMARK  status: ('A' for Active; 'I' for Inactive)
REMARK    1  A    between atoms: O_2  and  C_3 
REMARK    2  A    between atoms: C_5  and  N_6 
REMARK       I    between atoms: N_6  and  C_7 
REMARK       I    between atoms: C_7  and  N_9 
REMARK    3  A    between atoms: N_9  and  C_10 
REMARK    4  A    between atoms: C_10  and  C_12 
ROOT
HETATM    1  N   UNL     1     -42.717 -52.741  11.779  1.00  0.00    -0.295 N 
HETATM    2  C   UNL     1     -43.740 -53.091  12.612  1.00  0.00     0.322 C 
HETATM    3  O   UNL     1     -44.504 -53.993  12.279  1.00  0.00    -0.247 OA
HETATM    4  N   UNL     1     -43.844 -52.403  13.776  1.00  0.00    -0.338 N 
HETATM    5  H   UNL     1     -42.719 -53.276  10.922  1.00  0.00     0.172 HD
HETATM    6  H   UNL     1     -43.126 -51.702  13.935  1.00  0.00     0.164 HD
ENDROOT
BRANCH   1   7
HETATM    7  C   UNL     1     -41.686 -51.813  11.978  1.00  0.00     0.114 A 
HETATM    8  C   UNL     1     -40.495 -52.273  12.493  1.00  0.00     0.104 A 
HETATM    9  C   UNL     1     -39.511 -51.328  12.669  1.00  0.00     0.146 A 
HETATM   10  N   UNL     1     -39.663 -50.025  12.387  1.00  0.00    -0.333 N 
HETATM   11  C   UNL     1     -40.857 -49.684  11.898  1.00  0.00     0.183 A 
ATOM     12  HN  UNL     1     -38.919 -49.343  12.536  1.00  0.00     0.168 HD
HETATM   13  N   UNL     1     -41.883 -50.515  11.673  1.00  0.00    -0.338 N 
ATOM     14  HN  UNL     1     -42.768 -50.182  11.290  1.00  0.00     0.168 HD
BRANCH   9  15
HETATM   15  O   UNL     1     -38.304 -51.788  13.158  1.00  0.00    -0.341 OA
HETATM   16  C   UNL     1     -37.179 -51.094  12.626  1.00  0.00     0.211 C 
ENDBRANCH   9  15
ENDBRANCH   1   7
BRANCH   4  17
HETATM   17  C   UNL     1     -44.758 -52.727  14.849  1.00  0.00     0.086 C 
HETATM   18  C   UNL     1     -43.968 -53.057  16.116  1.00  0.00     0.032 C 
BRANCH  17  19
HETATM   19  C   UNL     1     -45.658 -51.541  15.081  1.00  0.00     0.008 A 
HETATM   20  C   UNL     1     -47.004 -51.726  15.739  1.00  0.00     0.007 A 
HETATM   21  C   UNL     1     -46.928 -51.377  14.280  1.00  0.00     0.007 A 
ENDBRANCH  17  19
ENDBRANCH   4  17
TORSDOF 4
ENDMDL
MODEL 2
REMARK VINA RESULT:      -5.7      3.880      5.953
REMARK  4 active torsions:
REMARK  status: ('A' for Active; 'I' for Inactive)
REMARK    1  A    between atoms: O_2  and  C_3 
REMARK    2  A    between atoms: C_5  and  N_6 
REMARK       I    between atoms: N_6  and  C_7 
REMARK       I    between atoms: C_7  and  N_9 
REMARK    3  A    between atoms: N_9  and  C_10 
REMARK    4  A    between atoms: C_10  and  C_12 
ROOT
HETATM    1  N   UNL     1     -41.209 -48.592  11.423  1.00  0.00    -0.295 N 
HETATM    2  C   UNL     1     -41.917 -47.734  10.632  1.00  0.00     0.322 C 
HETATM    3  O   UNL     1     -41.423 -46.652  10.325  1.00  0.00    -0.247 OA
HETATM    4  N   UNL     1     -43.146 -48.145  10.231  1.00  0.00    -0.338 N 
HETATM    5  H   UNL     1     -40.318 -48.207  11.704  1.00  0.00     0.172 HD
HETATM    6  H   UNL     1     -43.417 -49.075  10.535  1.00  0.00     0.164 HD
ENDROOT
BRANCH   1   7
HETATM    7  C   UNL     1     -41.528 -49.894  11.831  1.00  0.00     0.114 A 
HETATM    8  C   UNL     1     -42.484 -50.046  12.810  1.00  0.00     0.104 A 
HETATM    9  C   UNL     1     -42.768 -51.341  13.177  1.00  0.00     0.146 A 
HETATM   10  N   UNL     1     -42.165 -52.419  12.653  1.00  0.00    -0.333 N 
HETATM   11  C   UNL     1     -41.251 -52.160  11.714  1.00  0.00     0.183 A 
ATOM     12  HN  UNL     1     -42.389 -53.369  12.950  1.00  0.00     0.168 HD
HETATM   13  N   UNL     1     -40.901 -50.946  11.269  1.00  0.00    -0.338 N 
ATOM     14  HN  UNL     1     -40.195 -50.825  10.543  1.00  0.00     0.168 HD
BRANCH   9  15
HETATM   15  O   UNL     1     -43.746 -51.502  14.139  1.00  0.00    -0.341 OA
HETATM   16  C   UNL     1     -44.911 -52.164  13.652  1.00  0.00     0.211 C 
ENDBRANCH   9  15
ENDBRANCH   1   7
BRANCH   4  17
HETATM   17  C   UNL     1     -43.978 -47.451   9.272  1.00  0.00     0.086 C 
HETATM   18  C   UNL     1     -43.595 -47.877   7.855  1.00  0.00     0.032 C 
BRANCH  17  19
HETATM   19  C   UNL     1     -45.417 -47.793   9.557  1.00  0.00     0.008 A 
HETATM   20  C   UNL     1     -46.319 -48.271   8.444  1.00  0.00     0.007 A 
HETATM   21  C   UNL     1     -46.529 -46.910   9.043  1.00  0.00     0.007 A 
ENDBRANCH  17  19
ENDBRANCH   4  17
TORSDOF 4
ENDMDL
MODEL 3
REMARK VINA RESULT:      -5.4      3.619      5.284
REMARK  4 active torsions:
REMARK  status: ('A' for Active; 'I' for Inactive)
REMARK    1  A    between atoms: O_2  and  C_3 
REMARK    2  A    between atoms: C_5  and  N_6 
REMARK       I    between atoms: N_6  and  C_7 
REMARK       I    between atoms: C_7  and  N_9 
REMARK    3  A    between atoms: N_9  and  C_10 
REMARK    4  A    between atoms: C_10  and  C_12 
ROOT
HETATM    1  N   UNL     1     -40.891 -48.976  10.647  1.00  0.00    -0.295 N 
HETATM    2  C   UNL     1     -41.083 -50.035  11.486  1.00  0.00     0.322 C 
HETATM    3  O   UNL     1     -40.135 -50.767  11.757  1.00  0.00    -0.247 OA
HETATM    4  N   UNL     1     -42.336 -50.208  11.975  1.00  0.00    -0.338 N 
HETATM    5  H   UNL     1     -39.942 -48.927  10.302  1.00  0.00     0.172 HD
HETATM    6  H   UNL     1     -43.017 -49.510  11.691  1.00  0.00     0.164 HD
ENDROOT
BRANCH   1   7
HETATM    7  C   UNL     1     -41.789 -47.971  10.263  1.00  0.00     0.114 A 
HETATM    8  C   UNL     1     -41.766 -46.785  10.963  1.00  0.00     0.104 A 
HETATM    9  C   UNL     1     -42.662 -45.827  10.552  1.00  0.00     0.146 A 
HETATM   10  N   UNL     1     -43.534 -45.997   9.546  1.00  0.00    -0.333 N 
HETATM   11  C   UNL     1     -43.476 -47.184   8.937  1.00  0.00     0.183 A 
ATOM     12  HN  UNL     1     -44.195 -45.272   9.266  1.00  0.00     0.168 HD
HETATM   13  N   UNL     1     -42.641 -48.186   9.242  1.00  0.00    -0.338 N 
ATOM     14  HN  UNL     1     -42.650 -49.066   8.727  1.00  0.00     0.168 HD
BRANCH   9  15
HETATM   15  O   UNL     1     -42.625 -44.625  11.231  1.00  0.00    -0.341 OA
HETATM   16  C   UNL     1     -41.709 -44.623  12.323  1.00  0.00     0.211 C 
ENDBRANCH   9  15
ENDBRANCH   1   7
BRANCH   4  17
HETATM   17  C   UNL     1     -42.702 -51.171  12.991  1.00  0.00     0.086 C 
HETATM   18  C   UNL     1     -44.053 -50.791  13.597  1.00  0.00     0.032 C 
BRANCH  17  19
HETATM   19  C   UNL     1     -42.773 -52.533  12.351  1.00  0.00     0.008 A 
HETATM   20  C   UNL     1     -43.550 -53.645  13.014  1.00  0.00     0.007 A 
HETATM   21  C   UNL     1     -42.050 -53.706  12.969  1.00  0.00     0.007 A 
ENDBRANCH  17  19
ENDBRANCH   4  17
TORSDOF 4
ENDMDL
MODEL 4
REMARK VINA RESULT:      -5.4      2.451      3.023
REMARK  4 active torsions:
REMARK  status: ('A' for Active; 'I' for Inactive)
REMARK    1  A    between atoms: O_2  and  C_3 
REMARK    2  A    between atoms: C_5  and  N_6 
REMARK       I    between atoms: N_6  and  C_7 
REMARK       I    between atoms: C_7  and  N_9 
REMARK    3  A    between atoms: N_9  and  C_10 
REMARK    4  A    between atoms: C_10  and  C_12 
ROOT
HETATM    1  N   UNL     1     -40.837 -50.856  11.395  1.00  0.00    -0.295 N 
HETATM    2  C   UNL     1     -41.714 -51.698  12.015  1.00  0.00     0.322 C 
HETATM    3  O   UNL     1     -41.454 -52.896  12.079  1.00  0.00    -0.247 OA
HETATM    4  N   UNL     1     -42.838 -51.140  12.530  1.00  0.00    -0.338 N 
HETATM    5  H   UNL     1     -40.040 -51.346  11.013  1.00  0.00     0.172 HD
HETATM    6  H   UNL     1     -42.911 -50.132  12.430  1.00  0.00     0.164 HD
ENDROOT
BRANCH   1   7
HETATM    7  C   UNL     1     -40.880 -49.461  11.272  1.00  0.00     0.114 A 
HETATM    8  C   UNL     1     -40.116 -48.714  12.140  1.00  0.00     0.104 A 
HETATM    9  C   UNL     1     -40.186 -47.349  11.982  1.00  0.00     0.146 A 
HETATM   10  N   UNL     1     -40.952 -46.739  11.063  1.00  0.00    -0.333 N 
HETATM   11  C   UNL     1     -41.656 -47.554  10.276  1.00  0.00     0.183 A 
ATOM     12  HN  UNL     1     -40.991 -45.724  10.974  1.00  0.00     0.168 HD
HETATM   13  N   UNL     1     -41.658 -48.893  10.329  1.00  0.00    -0.338 N 
ATOM     14  HN  UNL     1     -42.220 -49.454   9.688  1.00  0.00     0.168 HD
BRANCH   9  15
HETATM   15  O   UNL     1     -39.400 -46.595  12.831  1.00  0.00    -0.341 OA
HETATM   16  C   UNL     1     -38.891 -47.338  13.936  1.00  0.00     0.211 C 
ENDBRANCH   9  15
ENDBRANCH   1   7
BRANCH   4  17
HETATM   17  C   UNL     1     -43.805 -51.835  13.352  1.00  0.00     0.086 C 
HETATM   18  C   UNL     1     -43.304 -51.897  14.794  1.00  0.00     0.032 C 
BRANCH  17  19
HETATM   19  C   UNL     1     -45.113 -51.092  13.277  1.00  0.00     0.008 A 
HETATM   20  C   UNL     1     -46.251 -51.461  14.198  1.00  0.00     0.007 A 
HETATM   21  C   UNL     1     -46.348 -51.769  12.731  1.00  0.00     0.007 A 
ENDBRANCH  17  19
ENDBRANCH   4  17
TORSDOF 4
ENDMDL
MODEL 5
REMARK VINA RESULT:      -5.3      3.145      4.402
REMARK  4 active torsions:
REMARK  status: ('A' for Active; 'I' for Inactive)
REMARK    1  A    between atoms: O_2  and  C_3 
REMARK    2  A    between atoms: C_5  and  N_6 
REMARK       I    between atoms: N_6  and  C_7 
REMARK       I    between atoms: C_7  and  N_9 
REMARK    3  A    between atoms: N_9  and  C_10 
REMARK    4  A    between atoms: C_10  and  C_12 
ROOT
HETATM    1  N   UNL     1     -43.118 -49.355  13.716  1.00  0.00    -0.295 N 
HETATM    2  C   UNL     1     -43.967 -50.358  14.085  1.00  0.00     0.322 C 
HETATM    3  O   UNL     1     -44.369 -50.410  15.245  1.00  0.00    -0.247 OA
HETATM    4  N   UNL     1     -44.315 -51.250  13.124  1.00  0.00    -0.338 N 
HETATM    5  H   UNL     1     -42.882 -48.749  14.489  1.00  0.00     0.172 HD
HETATM    6  H   UNL     1     -43.931 -51.070  12.201  1.00  0.00     0.164 HD
ENDROOT
BRANCH   1   7
HETATM    7  C   UNL     1     -42.600 -49.050  12.451  1.00  0.00     0.114 A 
HETATM    8  C   UNL     1     -43.308 -48.173  11.659  1.00  0.00     0.104 A 
HETATM    9  C   UNL     1     -42.761 -47.900  10.427  1.00  0.00     0.146 A 
HETATM   10  N   UNL     1     -41.620 -48.443   9.975  1.00  0.00    -0.333 N 
HETATM   11  C   UNL     1     -41.016 -49.283  10.818  1.00  0.00     0.183 A 
ATOM     12  HN  UNL     1     -41.242 -48.230   9.052  1.00  0.00     0.168 HD
HETATM   13  N   UNL     1     -41.446 -49.615  12.043  1.00  0.00    -0.338 N 
ATOM     14  HN  UNL     1     -40.927 -50.262  12.637  1.00  0.00     0.168 HD
BRANCH   9  15
HETATM   15  O   UNL     1     -43.451 -46.999   9.640  1.00  0.00    -0.341 OA
HETATM   16  C   UNL     1     -43.489 -47.368   8.263  1.00  0.00     0.211 C 
ENDBRANCH   9  15
ENDBRANCH   1   7
BRANCH   4  17
HETATM   17  C   UNL     1     -45.316 -52.283  13.278  1.00  0.00     0.086 C 
HETATM   18  C   UNL     1     -46.476 -52.023  12.316  1.00  0.00     0.032 C 
BRANCH  17  19
HETATM   19  C   UNL     1     -44.674 -53.614  12.986  1.00  0.00     0.008 A 
HETATM   20  C   UNL     1     -45.251 -54.881  13.570  1.00  0.00     0.007 A 
HETATM   21  C   UNL     1     -43.933 -54.360  14.070  1.00  0.00     0.007 A 
ENDBRANCH  17  19
ENDBRANCH   4  17
TORSDOF 4
ENDMDL
MODEL 6
REMARK VINA RESULT:      -5.1      1.663      2.134
REMARK  4 active torsions:
REMARK  status: ('A' for Active; 'I' for Inactive)
REMARK    1  A    between atoms: O_2  and  C_3 
REMARK    2  A    between atoms: C_5  and  N_6 
REMARK       I    between atoms: N_6  and  C_7 
REMARK       I    between atoms: C_7  and  N_9 
REMARK    3  A    between atoms: N_9  and  C_10 
REMARK    4  A    between atoms: C_10  and  C_12 
ROOT
HETATM    1  N   UNL     1     -43.733 -52.940  11.961  1.00  0.00    -0.295 N 
HETATM    2  C   UNL     1     -44.914 -52.917  12.645  1.00  0.00     0.322 C 
HETATM    3  O   UNL     1     -45.970 -53.003  12.025  1.00  0.00    -0.247 OA
HETATM    4  N   UNL     1     -44.836 -52.799  13.994  1.00  0.00    -0.338 N 
HETATM    5  H   UNL     1     -43.870 -53.002  10.962  1.00  0.00     0.172 HD
HETATM    6  H   UNL     1     -43.896 -52.766  14.377  1.00  0.00     0.164 HD
ENDROOT
BRANCH   1   7
HETATM    7  C   UNL     1     -42.421 -52.938  12.452  1.00  0.00     0.114 A 
HETATM    8  C   UNL     1     -41.763 -51.731  12.529  1.00  0.00     0.104 A 
HETATM    9  C   UNL     1     -40.479 -51.775  13.019  1.00  0.00     0.146 A 
HETATM   10  N   UNL     1     -39.858 -52.904  13.395  1.00  0.00    -0.333 N 
HETATM   11  C   UNL     1     -40.582 -54.019  13.276  1.00  0.00     0.183 A 
ATOM     12  HN  UNL     1     -38.901 -52.910  13.747  1.00  0.00     0.168 HD
HETATM   13  N   UNL     1     -41.841 -54.097  12.824  1.00  0.00    -0.338 N 
ATOM     14  HN  UNL     1     -42.336 -54.987  12.766  1.00  0.00     0.168 HD
BRANCH   9  15
HETATM   15  O   UNL     1     -39.825 -50.564  13.126  1.00  0.00    -0.341 OA
HETATM   16  C   UNL     1     -39.325 -50.082  11.880  1.00  0.00     0.211 C 
ENDBRANCH   9  15
ENDBRANCH   1   7
BRANCH   4  17
HETATM   17  C   UNL     1     -45.959 -52.911  14.900  1.00  0.00     0.086 C 
HETATM   18  C   UNL     1     -45.532 -53.670  16.156  1.00  0.00     0.032 C 
BRANCH  17  19
HETATM   19  C   UNL     1     -46.425 -51.522  15.253  1.00  0.00     0.008 A 
HETATM   20  C   UNL     1     -46.198 -50.974  16.642  1.00  0.00     0.007 A 
HETATM   21  C   UNL     1     -47.589 -51.322  16.194  1.00  0.00     0.007 A 
ENDBRANCH  17  19
ENDBRANCH   4  17
TORSDOF 4
ENDMDL
MODEL 7
REMARK VINA RESULT:      -5.1      3.255      6.110
REMARK  4 active torsions:
REMARK  status: ('A' for Active; 'I' for Inactive)
REMARK    1  A    between atoms: O_2  and  C_3 
REMARK    2  A    between atoms: C_5  and  N_6 
REMARK       I    between atoms: N_6  and  C_7 
REMARK       I    between atoms: C_7  and  N_9 
REMARK    3  A    between atoms: N_9  and  C_10 
REMARK    4  A    between atoms: C_10  and  C_12 
ROOT
HETATM    1  N   UNL     1     -43.135 -49.646  13.677  1.00  0.00    -0.295 N 
HETATM    2  C   UNL     1     -43.123 -48.443  13.032  1.00  0.00     0.322 C 
HETATM    3  O   UNL     1     -43.069 -47.408  13.692  1.00  0.00    -0.247 OA
HETATM    4  N   UNL     1     -43.175 -48.473  11.677  1.00  0.00    -0.338 N 
HETATM    5  H   UNL     1     -43.123 -49.543  14.681  1.00  0.00     0.172 HD
HETATM    6  H   UNL     1     -43.188 -49.400  11.261  1.00  0.00     0.164 HD
ENDROOT
BRANCH   1   7
HETATM    7  C   UNL     1     -43.112 -50.941  13.141  1.00  0.00     0.114 A 
HETATM    8  C   UNL     1     -44.270 -51.684  13.204  1.00  0.00     0.104 A 
HETATM    9  C   UNL     1     -44.203 -52.947  12.664  1.00  0.00     0.146 A 
HETATM   10  N   UNL     1     -43.096 -53.472  12.116  1.00  0.00    -0.333 N 
HETATM   11  C   UNL     1     -42.029 -52.670  12.110  1.00  0.00     0.183 A 
ATOM     12  HN  UNL     1     -43.072 -54.416  11.730  1.00  0.00     0.168 HD
HETATM   13  N   UNL     1     -41.978 -51.422  12.594  1.00  0.00    -0.338 N 
ATOM     14  HN  UNL     1     -41.125 -50.864  12.550  1.00  0.00     0.168 HD
BRANCH   9  15
HETATM   15  O   UNL     1     -45.369 -53.687  12.697  1.00  0.00    -0.341 OA
HETATM   16  C   UNL     1     -45.331 -54.756  13.640  1.00  0.00     0.211 C 
ENDBRANCH   9  15
ENDBRANCH   1   7
BRANCH   4  17
HETATM   17  C   UNL     1     -43.018 -47.321  10.817  1.00  0.00     0.086 C 
HETATM   18  C   UNL     1     -41.531 -47.060  10.573  1.00  0.00     0.032 C 
BRANCH  17  19
HETATM   19  C   UNL     1     -43.727 -47.598   9.518  1.00  0.00     0.008 A 
HETATM   20  C   UNL     1     -43.533 -46.680   8.335  1.00  0.00     0.007 A 
HETATM   21  C   UNL     1     -44.851 -46.702   9.054  1.00  0.00     0.007 A 
ENDBRANCH  17  19
ENDBRANCH   4  17
TORSDOF 4
ENDMDL
MODEL 8
REMARK VINA RESULT:      -5.1      3.945      6.153
REMARK  4 active torsions:
REMARK  status: ('A' for Active; 'I' for Inactive)
REMARK    1  A    between atoms: O_2  and  C_3 
REMARK    2  A    between atoms: C_5  and  N_6 
REMARK       I    between atoms: N_6  and  C_7 
REMARK       I    between atoms: C_7  and  N_9 
REMARK    3  A    between atoms: N_9  and  C_10 
REMARK    4  A    between atoms: C_10  and  C_12 
ROOT
HETATM    1  N   UNL     1     -40.805 -49.492  10.549  1.00  0.00    -0.295 N 
HETATM    2  C   UNL     1     -41.380 -48.256  10.605  1.00  0.00     0.322 C 
HETATM    3  O   UNL     1     -42.386 -48.029   9.938  1.00  0.00    -0.247 OA
HETATM    4  N   UNL     1     -40.787 -47.342  11.413  1.00  0.00    -0.338 N 
HETATM    5  H   UNL     1     -41.284 -50.109   9.907  1.00  0.00     0.172 HD
HETATM    6  H   UNL     1     -39.978 -47.674  11.930  1.00  0.00     0.164 HD
ENDROOT
BRANCH   1   7
HETATM    7  C   UNL     1     -39.718 -50.001  11.272  1.00  0.00     0.114 A 
HETATM    8  C   UNL     1     -39.982 -50.668  12.447  1.00  0.00     0.104 A 
HETATM    9  C   UNL     1     -38.886 -51.153  13.122  1.00  0.00     0.146 A 
HETATM   10  N   UNL     1     -37.619 -50.996  12.708  1.00  0.00    -0.333 N 
HETATM   11  C   UNL     1     -37.474 -50.331  11.559  1.00  0.00     0.183 A 
ATOM     12  HN  UNL     1     -36.824 -51.358  13.233  1.00  0.00     0.168 HD
HETATM   13  N   UNL     1     -38.464 -49.825  10.811  1.00  0.00    -0.338 N 
ATOM     14  HN  UNL     1     -38.277 -49.332   9.938  1.00  0.00     0.168 HD
BRANCH   9  15
HETATM   15  O   UNL     1     -39.145 -51.847  14.288  1.00  0.00    -0.341 OA
HETATM   16  C   UNL     1     -40.504 -52.263  14.405  1.00  0.00     0.211 C 
ENDBRANCH   9  15
ENDBRANCH   1   7
BRANCH   4  17
HETATM   17  C   UNL     1     -41.329 -46.037  11.725  1.00  0.00     0.086 C 
HETATM   18  C   UNL     1     -42.018 -46.078  13.089  1.00  0.00     0.032 C 
BRANCH  17  19
HETATM   19  C   UNL     1     -40.199 -45.042  11.732  1.00  0.00     0.008 A 
HETATM   20  C   UNL     1     -40.486 -43.566  11.864  1.00  0.00     0.007 A 
HETATM   21  C   UNL     1     -39.987 -44.116  10.558  1.00  0.00     0.007 A 
ENDBRANCH  17  19
ENDBRANCH   4  17
TORSDOF 4
ENDMDL
MODEL 9
REMARK VINA RESULT:      -4.7      2.266      6.001
REMARK  4 active torsions:
REMARK  status: ('A' for Active; 'I' for Inactive)
REMARK    1  A    between atoms: O_2  and  C_3 
REMARK    2  A    between atoms: C_5  and  N_6 
REMARK       I    between atoms: N_6  and  C_7 
REMARK       I    between atoms: C_7  and  N_9 
REMARK    3  A    between atoms: N_9  and  C_10 
REMARK    4  A    between atoms: C_10  and  C_12 
ROOT
HETATM    1  N   UNL     1     -41.797 -54.268  13.353  1.00  0.00    -0.295 N 
HETATM    2  C   UNL     1     -40.781 -53.360  13.272  1.00  0.00     0.322 C 
HETATM    3  O   UNL     1     -39.622 -53.759  13.201  1.00  0.00    -0.247 OA
HETATM    4  N   UNL     1     -41.131 -52.049  13.276  1.00  0.00    -0.338 N 
HETATM    5  H   UNL     1     -41.460 -55.220  13.373  1.00  0.00     0.172 HD
HETATM    6  H   UNL     1     -42.129 -51.862  13.310  1.00  0.00     0.164 HD
ENDROOT
BRANCH   1   7
HETATM    7  C   UNL     1     -43.182 -54.054  13.360  1.00  0.00     0.114 A 
HETATM    8  C   UNL     1     -43.896 -54.496  14.452  1.00  0.00     0.104 A 
HETATM    9  C   UNL     1     -45.251 -54.263  14.418  1.00  0.00     0.146 A 
HETATM   10  N   UNL     1     -45.884 -53.661  13.399  1.00  0.00    -0.333 N 
HETATM   11  C   UNL     1     -45.100 -53.276  12.390  1.00  0.00     0.183 A 
ATOM     12  HN  UNL     1     -46.893 -53.508  13.397  1.00  0.00     0.168 HD
HETATM   13  N   UNL     1     -43.773 -53.439  12.316  1.00  0.00    -0.338 N 
ATOM     14  HN  UNL     1     -43.236 -53.113  11.513  1.00  0.00     0.168 HD
BRANCH   9  15
HETATM   15  O   UNL     1     -45.969 -54.677  15.523  1.00  0.00    -0.341 OA
HETATM   16  C   UNL     1     -45.712 -53.895  16.687  1.00  0.00     0.211 C 
ENDBRANCH   9  15
ENDBRANCH   1   7
BRANCH   4  17
HETATM   17  C   UNL     1     -40.220 -50.949  13.044  1.00  0.00     0.086 C 
HETATM   18  C   UNL     1     -40.482 -50.346  11.664  1.00  0.00     0.032 C 
BRANCH  17  19
HETATM   19  C   UNL     1     -40.435 -49.919  14.122  1.00  0.00     0.008 A 
HETATM   20  C   UNL     1     -39.850 -48.535  13.978  1.00  0.00     0.007 A 
HETATM   21  C   UNL     1     -39.287 -49.480  15.000  1.00  0.00     0.007 A 
ENDBRANCH  17  19
ENDBRANCH   4  17
TORSDOF 4
ENDMDL
