MODEL 1
REMARK VINA RESULT:      -5.8      0.000      0.000
REMARK  5 active torsions:
REMARK  status: ('A' for Active; 'I' for Inactive)
REMARK    1  A    between atoms: C_2  and  C_3 
REMARK       I    between atoms: C_2  and  N_10 
REMARK    2  A    between atoms: C_3  and  N_4 
REMARK    3  A    between atoms: N_10  and  C_11 
REMARK    4  A    between atoms: C_11  and  C_12 
REMARK    5  A    between atoms: C_12  and  C_13 
ROOT
HETATM    1  O   UNL     1     -42.677 -47.250  12.537  1.00  0.00    -0.272 OA
HETATM    2  C   UNL     1     -42.729 -48.097  11.648  1.00  0.00     0.237 C 
HETATM    3  N   UNL     1     -43.164 -49.390  11.857  1.00  0.00    -0.360 N 
HETATM    4  H   UNL     1     -43.039 -50.085  11.131  1.00  0.00     0.162 HD
ENDROOT
BRANCH   3   5
HETATM    5  C   UNL     1     -43.581 -49.857  13.165  1.00  0.00     0.123 C 
BRANCH   5   6
HETATM    6  C   UNL     1     -43.320 -51.349  13.378  1.00  0.00     0.024 C 
BRANCH   6   7
HETATM    7  C   UNL     1     -44.617 -52.166  13.394  1.00  0.00    -0.009 C 
HETATM    8  C   UNL     1     -45.882 -51.294  13.231  1.00  0.00     0.010 C 
HETATM    9  C   UNL     1     -46.742 -51.703  14.441  1.00  0.00    -0.014 C 
HETATM   10  C   UNL     1     -46.099 -51.133  15.719  1.00  0.00     0.005 C 
HETATM   11  C   UNL     1     -46.427 -53.194  14.559  1.00  0.00     0.009 C 
HETATM   12  C   UNL     1     -44.884 -52.047  15.932  1.00  0.00     0.005 C 
HETATM   13  C   UNL     1     -44.920 -52.957  14.694  1.00  0.00    -0.010 C 
ENDBRANCH   6   7
ENDBRANCH   5   6
ENDBRANCH   3   5
BRANCH   2  14
HETATM   14  C   UNL     1     -42.322 -47.775  10.230  1.00  0.00     0.249 C 
BRANCH  14  15
HETATM   15  N   UNL     1     -43.222 -46.814   9.651  1.00  0.00    -0.264 N 
HETATM   16  C   UNL     1     -44.516 -46.970   9.267  1.00  0.00     0.213 A 
HETATM   17  N   UNL     1     -44.973 -45.807   8.864  1.00  0.00    -0.281 N 
HETATM   18  N   UNL     1     -43.935 -44.919   9.019  1.00  0.00    -0.008 NA
ATOM     19  HN  UNL     1     -45.907 -45.605   8.508  1.00  0.00     0.184 HD
HETATM   20  N   UNL     1     -42.859 -45.525   9.505  1.00  0.00    -0.005 NA
ENDBRANCH  14  15
ENDBRANCH   2  14
TORSDOF 5
ENDMDL
MODEL 2
REMARK VINA RESULT:      -5.8      1.364      2.110
REMARK  5 active torsions:
REMARK  status: ('A' for Active; 'I' for Inactive)
REMARK    1  A    between atoms: C_2  and  C_3 
REMARK       I    between atoms: C_2  and  N_10 
REMARK    2  A    between atoms: C_3  and  N_4 
REMARK    3  A    between atoms: N_10  and  C_11 
REMARK    4  A    between atoms: C_11  and  C_12 
REMARK    5  A    between atoms: C_12  and  C_13 
ROOT
HETATM    1  O   UNL     1     -42.716 -46.924  12.313  1.00  0.00    -0.272 OA
HETATM    2  C   UNL     1     -42.583 -47.574  11.278  1.00  0.00     0.237 C 
HETATM    3  N   UNL     1     -42.434 -48.946  11.259  1.00  0.00    -0.360 N 
HETATM    4  H   UNL     1     -42.172 -49.411  10.397  1.00  0.00     0.162 HD
ENDROOT
BRANCH   3   5
HETATM    5  C   UNL     1     -42.403 -49.732  12.477  1.00  0.00     0.123 C 
BRANCH   5   6
HETATM    6  C   UNL     1     -43.789 -49.933  13.094  1.00  0.00     0.024 C 
BRANCH   6   7
HETATM    7  C   UNL     1     -43.935 -51.309  13.751  1.00  0.00    -0.009 C 
HETATM    8  C   UNL     1     -43.781 -52.476  12.748  1.00  0.00     0.010 C 
HETATM    9  C   UNL     1     -45.063 -53.299  12.975  1.00  0.00    -0.014 C 
HETATM   10  C   UNL     1     -46.259 -52.516  12.403  1.00  0.00     0.005 C 
HETATM   11  C   UNL     1     -45.269 -53.147  14.482  1.00  0.00     0.009 C 
HETATM   12  C   UNL     1     -46.469 -51.400  13.437  1.00  0.00     0.005 C 
HETATM   13  C   UNL     1     -45.303 -51.617  14.415  1.00  0.00    -0.010 C 
ENDBRANCH   6   7
ENDBRANCH   5   6
ENDBRANCH   3   5
BRANCH   2  14
HETATM   14  C   UNL     1     -42.585 -46.907   9.925  1.00  0.00     0.249 C 
BRANCH  14  15
HETATM   15  N   UNL     1     -43.683 -47.384   9.127  1.00  0.00    -0.264 N 
HETATM   16  C   UNL     1     -43.682 -47.833   7.844  1.00  0.00     0.213 A 
HETATM   17  N   UNL     1     -44.893 -48.242   7.546  1.00  0.00    -0.281 N 
HETATM   18  N   UNL     1     -45.647 -48.049   8.680  1.00  0.00    -0.008 NA
ATOM     19  HN  UNL     1     -45.210 -48.624   6.655  1.00  0.00     0.184 HD
HETATM   20  N   UNL     1     -44.913 -47.528   9.656  1.00  0.00    -0.005 NA
ENDBRANCH  14  15
ENDBRANCH   2  14
TORSDOF 5
ENDMDL
MODEL 3
REMARK VINA RESULT:      -5.7      4.592      5.557
REMARK  5 active torsions:
REMARK  status: ('A' for Active; 'I' for Inactive)
REMARK    1  A    between atoms: C_2  and  C_3 
REMARK       I    between atoms: C_2  and  N_10 
REMARK    2  A    between atoms: C_3  and  N_4 
REMARK    3  A    between atoms: N_10  and  C_11 
REMARK    4  A    between atoms: C_11  and  C_12 
REMARK    5  A    between atoms: C_12  and  C_13 
ROOT
HETATM    1  O   UNL     1     -39.196 -54.137  13.598  1.00  0.00    -0.272 OA
HETATM    2  C   UNL     1     -39.759 -53.082  13.883  1.00  0.00     0.237 C 
HETATM    3  N   UNL     1     -41.129 -52.964  14.010  1.00  0.00    -0.360 N 
HETATM    4  H   UNL     1     -41.549 -52.046  14.090  1.00  0.00     0.162 HD
ENDROOT
BRANCH   3   5
HETATM    5  C   UNL     1     -42.019 -54.089  13.797  1.00  0.00     0.123 C 
BRANCH   5   6
HETATM    6  C   UNL     1     -43.373 -53.678  13.215  1.00  0.00     0.024 C 
BRANCH   6   7
HETATM    7  C   UNL     1     -44.372 -53.276  14.305  1.00  0.00    -0.009 C 
HETATM    8  C   UNL     1     -45.811 -53.760  14.013  1.00  0.00     0.010 C 
HETATM    9  C   UNL     1     -46.640 -52.467  14.123  1.00  0.00    -0.014 C 
HETATM   10  C   UNL     1     -46.329 -51.576  12.907  1.00  0.00     0.005 C 
HETATM   11  C   UNL     1     -45.922 -51.731  15.254  1.00  0.00     0.009 C 
HETATM   12  C   UNL     1     -44.931 -51.027  13.228  1.00  0.00     0.005 C 
HETATM   13  C   UNL     1     -44.571 -51.754  14.533  1.00  0.00    -0.010 C 
ENDBRANCH   6   7
ENDBRANCH   5   6
ENDBRANCH   3   5
BRANCH   2  14
HETATM   14  C   UNL     1     -38.978 -51.815  14.129  1.00  0.00     0.249 C 
BRANCH  14  15
HETATM   15  N   UNL     1     -38.481 -51.277  12.891  1.00  0.00    -0.264 N 
HETATM   16  C   UNL     1     -39.059 -50.381  12.049  1.00  0.00     0.213 A 
HETATM   17  N   UNL     1     -38.214 -50.118  11.079  1.00  0.00    -0.281 N 
HETATM   18  N   UNL     1     -37.089 -50.862  11.344  1.00  0.00    -0.008 NA
ATOM     19  HN  UNL     1     -38.363 -49.489  10.290  1.00  0.00     0.184 HD
HETATM   20  N   UNL     1     -37.241 -51.573  12.456  1.00  0.00    -0.005 NA
ENDBRANCH  14  15
ENDBRANCH   2  14
TORSDOF 5
ENDMDL
MODEL 4
REMARK VINA RESULT:      -5.6      4.125      5.346
REMARK  5 active torsions:
REMARK  status: ('A' for Active; 'I' for Inactive)
REMARK    1  A    between atoms: C_2  and  C_3 
REMARK       I    between atoms: C_2  and  N_10 
REMARK    2  A    between atoms: C_3  and  N_4 
REMARK    3  A    between atoms: N_10  and  C_11 
REMARK    4  A    between atoms: C_11  and  C_12 
REMARK    5  A    between atoms: C_12  and  C_13 
ROOT
HETATM    1  O   UNL     1     -41.358 -53.014  15.533  1.00  0.00    -0.272 OA
HETATM    2  C   UNL     1     -41.308 -53.796  14.586  1.00  0.00     0.237 C 
HETATM    3  N   UNL     1     -42.272 -54.754  14.343  1.00  0.00    -0.360 N 
HETATM    4  H   UNL     1     -42.104 -55.470  13.646  1.00  0.00     0.162 HD
ENDROOT
BRANCH   3   5
HETATM    5  C   UNL     1     -43.422 -54.923  15.210  1.00  0.00     0.123 C 
BRANCH   5   6
HETATM    6  C   UNL     1     -44.741 -54.539  14.536  1.00  0.00     0.024 C 
BRANCH   6   7
HETATM    7  C   UNL     1     -45.456 -53.401  15.272  1.00  0.00    -0.009 C 
HETATM    8  C   UNL     1     -46.866 -53.111  14.710  1.00  0.00     0.010 C 
HETATM    9  C   UNL     1     -46.818 -51.600  14.416  1.00  0.00    -0.014 C 
HETATM   10  C   UNL     1     -45.911 -51.365  13.194  1.00  0.00     0.005 C 
HETATM   11  C   UNL     1     -45.952 -51.086  15.565  1.00  0.00     0.009 C 
HETATM   12  C   UNL     1     -44.501 -51.573  13.764  1.00  0.00     0.005 C 
HETATM   13  C   UNL     1     -44.779 -52.006  15.212  1.00  0.00    -0.010 C 
ENDBRANCH   6   7
ENDBRANCH   5   6
ENDBRANCH   3   5
BRANCH   2  14
HETATM   14  C   UNL     1     -40.173 -53.759  13.593  1.00  0.00     0.249 C 
BRANCH  14  15
HETATM   15  N   UNL     1     -40.289 -52.611  12.734  1.00  0.00    -0.264 N 
HETATM   16  C   UNL     1     -41.287 -52.279  11.874  1.00  0.00     0.213 A 
HETATM   17  N   UNL     1     -41.013 -51.105  11.353  1.00  0.00    -0.281 N 
HETATM   18  N   UNL     1     -39.825 -50.707  11.921  1.00  0.00    -0.008 NA
ATOM     19  HN  UNL     1     -41.568 -50.592  10.668  1.00  0.00     0.184 HD
HETATM   20  N   UNL     1     -39.376 -51.622  12.772  1.00  0.00    -0.005 NA
ENDBRANCH  14  15
ENDBRANCH   2  14
TORSDOF 5
ENDMDL
MODEL 5
REMARK VINA RESULT:      -5.6      5.070      5.966
REMARK  5 active torsions:
REMARK  status: ('A' for Active; 'I' for Inactive)
REMARK    1  A    between atoms: C_2  and  C_3 
REMARK       I    between atoms: C_2  and  N_10 
REMARK    2  A    between atoms: C_3  and  N_4 
REMARK    3  A    between atoms: N_10  and  C_11 
REMARK    4  A    between atoms: C_11  and  C_12 
REMARK    5  A    between atoms: C_12  and  C_13 
ROOT
HETATM    1  O   UNL     1     -38.641 -52.393  15.680  1.00  0.00    -0.272 OA
HETATM    2  C   UNL     1     -38.825 -51.990  14.534  1.00  0.00     0.237 C 
HETATM    3  N   UNL     1     -39.457 -52.736  13.560  1.00  0.00    -0.360 N 
HETATM    4  H   UNL     1     -39.443 -52.421  12.597  1.00  0.00     0.162 HD
ENDROOT
BRANCH   3   5
HETATM    5  C   UNL     1     -39.942 -54.078  13.816  1.00  0.00     0.123 C 
BRANCH   5   6
HETATM    6  C   UNL     1     -41.379 -54.296  13.337  1.00  0.00     0.024 C 
BRANCH   6   7
HETATM    7  C   UNL     1     -42.410 -53.839  14.374  1.00  0.00    -0.009 C 
HETATM    8  C   UNL     1     -43.264 -55.001  14.930  1.00  0.00     0.010 C 
HETATM    9  C   UNL     1     -44.706 -54.513  14.698  1.00  0.00    -0.014 C 
HETATM   10  C   UNL     1     -45.006 -54.564  13.188  1.00  0.00     0.005 C 
HETATM   11  C   UNL     1     -44.572 -53.012  14.950  1.00  0.00     0.009 C 
HETATM   12  C   UNL     1     -44.224 -53.362  12.639  1.00  0.00     0.005 C 
HETATM   13  C   UNL     1     -43.488 -52.837  13.882  1.00  0.00    -0.010 C 
ENDBRANCH   6   7
ENDBRANCH   5   6
ENDBRANCH   3   5
BRANCH   2  14
HETATM   14  C   UNL     1     -38.373 -50.616  14.101  1.00  0.00     0.249 C 
BRANCH  14  15
HETATM   15  N   UNL     1     -37.929 -50.637  12.733  1.00  0.00    -0.264 N 
HETATM   16  C   UNL     1     -38.224 -49.781  11.721  1.00  0.00     0.213 A 
HETATM   17  N   UNL     1     -37.535 -50.137  10.661  1.00  0.00    -0.281 N 
HETATM   18  N   UNL     1     -36.792 -51.229  11.043  1.00  0.00    -0.008 NA
ATOM     19  HN  UNL     1     -37.548 -49.694   9.743  1.00  0.00     0.184 HD
HETATM   20  N   UNL     1     -37.023 -51.540  12.313  1.00  0.00    -0.005 NA
ENDBRANCH  14  15
ENDBRANCH   2  14
TORSDOF 5
ENDMDL
MODEL 6
REMARK VINA RESULT:      -5.5      2.538      3.215
REMARK  5 active torsions:
REMARK  status: ('A' for Active; 'I' for Inactive)
REMARK    1  A    between atoms: C_2  and  C_3 
REMARK       I    between atoms: C_2  and  N_10 
REMARK    2  A    between atoms: C_3  and  N_4 
REMARK    3  A    between atoms: N_10  and  C_11 
REMARK    4  A    between atoms: C_11  and  C_12 
REMARK    5  A    between atoms: C_12  and  C_13 
ROOT
HETATM    1  O   UNL     1     -43.043 -47.216  12.595  1.00  0.00    -0.272 OA
HETATM    2  C   UNL     1     -42.839 -47.608  11.448  1.00  0.00     0.237 C 
HETATM    3  N   UNL     1     -42.458 -48.900  11.145  1.00  0.00    -0.360 N 
HETATM    4  H   UNL     1     -42.152 -49.126  10.206  1.00  0.00     0.162 HD
ENDROOT
BRANCH   3   5
HETATM    5  C   UNL     1     -42.248 -49.899  12.175  1.00  0.00     0.123 C 
BRANCH   5   6
HETATM    6  C   UNL     1     -40.964 -50.706  11.972  1.00  0.00     0.024 C 
BRANCH   6   7
HETATM    7  C   UNL     1     -41.216 -52.216  12.020  1.00  0.00    -0.009 C 
HETATM    8  C   UNL     1     -42.692 -52.573  12.310  1.00  0.00     0.010 C 
HETATM    9  C   UNL     1     -42.588 -53.525  13.516  1.00  0.00    -0.014 C 
HETATM   10  C   UNL     1     -42.186 -52.706  14.757  1.00  0.00     0.005 C 
HETATM   11  C   UNL     1     -41.300 -54.287  13.202  1.00  0.00     0.009 C 
HETATM   12  C   UNL     1     -40.698 -52.415  14.514  1.00  0.00     0.005 C 
HETATM   13  C   UNL     1     -40.458 -53.010  13.117  1.00  0.00    -0.010 C 
ENDBRANCH   6   7
ENDBRANCH   5   6
ENDBRANCH   3   5
BRANCH   2  14
HETATM   14  C   UNL     1     -43.005 -46.690  10.262  1.00  0.00     0.249 C 
BRANCH  14  15
HETATM   15  N   UNL     1     -43.906 -47.266   9.299  1.00  0.00    -0.264 N 
HETATM   16  C   UNL     1     -43.661 -47.663   8.024  1.00  0.00     0.213 A 
HETATM   17  N   UNL     1     -44.756 -48.202   7.539  1.00  0.00    -0.281 N 
HETATM   18  N   UNL     1     -45.686 -48.143   8.550  1.00  0.00    -0.008 NA
ATOM     19  HN  UNL     1     -44.889 -48.587   6.604  1.00  0.00     0.184 HD
HETATM   20  N   UNL     1     -45.173 -47.575   9.635  1.00  0.00    -0.005 NA
ENDBRANCH  14  15
ENDBRANCH   2  14
TORSDOF 5
ENDMDL
MODEL 7
REMARK VINA RESULT:      -5.4      5.041      7.646
REMARK  5 active torsions:
REMARK  status: ('A' for Active; 'I' for Inactive)
REMARK    1  A    between atoms: C_2  and  C_3 
REMARK       I    between atoms: C_2  and  N_10 
REMARK    2  A    between atoms: C_3  and  N_4 
REMARK    3  A    between atoms: N_10  and  C_11 
REMARK    4  A    between atoms: C_11  and  C_12 
REMARK    5  A    between atoms: C_12  and  C_13 
ROOT
HETATM    1  O   UNL     1     -42.224 -53.111  15.519  1.00  0.00    -0.272 OA
HETATM    2  C   UNL     1     -42.311 -53.901  14.582  1.00  0.00     0.237 C 
HETATM    3  N   UNL     1     -41.360 -54.005  13.587  1.00  0.00    -0.360 N 
HETATM    4  H   UNL     1     -41.556 -54.556  12.760  1.00  0.00     0.162 HD
ENDROOT
BRANCH   3   5
HETATM    5  C   UNL     1     -40.177 -53.166  13.565  1.00  0.00     0.123 C 
BRANCH   5   6
HETATM    6  C   UNL     1     -40.269 -52.032  12.542  1.00  0.00     0.024 C 
BRANCH   6   7
HETATM    7  C   UNL     1     -39.760 -50.701  13.107  1.00  0.00    -0.009 C 
HETATM    8  C   UNL     1     -39.867 -49.536  12.097  1.00  0.00     0.010 C 
HETATM    9  C   UNL     1     -38.436 -48.968  12.072  1.00  0.00    -0.014 C 
HETATM   10  C   UNL     1     -37.522 -49.968  11.340  1.00  0.00     0.005 C 
HETATM   11  C   UNL     1     -38.005 -49.141  13.527  1.00  0.00     0.009 C 
HETATM   12  C   UNL     1     -37.346 -51.094  12.370  1.00  0.00     0.005 C 
HETATM   13  C   UNL     1     -38.265 -50.651  13.519  1.00  0.00    -0.010 C 
ENDBRANCH   6   7
ENDBRANCH   5   6
ENDBRANCH   3   5
BRANCH   2  14
HETATM   14  C   UNL     1     -43.484 -54.841  14.452  1.00  0.00     0.249 C 
BRANCH  14  15
HETATM   15  N   UNL     1     -44.574 -54.200  13.765  1.00  0.00    -0.264 N 
HETATM   16  C   UNL     1     -45.790 -53.827  14.242  1.00  0.00     0.213 A 
HETATM   17  N   UNL     1     -46.438 -53.205  13.284  1.00  0.00    -0.281 N 
HETATM   18  N   UNL     1     -45.590 -53.188  12.202  1.00  0.00    -0.008 NA
ATOM     19  HN  UNL     1     -47.379 -52.814  13.333  1.00  0.00     0.184 HD
HETATM   20  N   UNL     1     -44.442 -53.791  12.489  1.00  0.00    -0.005 NA
ENDBRANCH  14  15
ENDBRANCH   2  14
TORSDOF 5
ENDMDL
MODEL 8
REMARK VINA RESULT:      -5.4      2.232      3.158
REMARK  5 active torsions:
REMARK  status: ('A' for Active; 'I' for Inactive)
REMARK    1  A    between atoms: C_2  and  C_3 
REMARK       I    between atoms: C_2  and  N_10 
REMARK    2  A    between atoms: C_3  and  N_4 
REMARK    3  A    between atoms: N_10  and  C_11 
REMARK    4  A    between atoms: C_11  and  C_12 
REMARK    5  A    between atoms: C_12  and  C_13 
ROOT
HETATM    1  O   UNL     1     -42.859 -47.460  12.425  1.00  0.00    -0.272 OA
HETATM    2  C   UNL     1     -42.552 -48.247  11.533  1.00  0.00     0.237 C 
HETATM    3  N   UNL     1     -42.578 -49.618  11.689  1.00  0.00    -0.360 N 
HETATM    4  H   UNL     1     -42.168 -50.213  10.979  1.00  0.00     0.162 HD
ENDROOT
BRANCH   3   5
HETATM    5  C   UNL     1     -42.959 -50.241  12.942  1.00  0.00     0.123 C 
BRANCH   5   6
HETATM    6  C   UNL     1     -41.807 -50.994  13.609  1.00  0.00     0.024 C 
BRANCH   6   7
HETATM    7  C   UNL     1     -42.286 -52.255  14.337  1.00  0.00    -0.009 C 
HETATM    8  C   UNL     1     -41.332 -52.697  15.471  1.00  0.00     0.010 C 
HETATM    9  C   UNL     1     -41.044 -54.170  15.126  1.00  0.00    -0.014 C 
HETATM   10  C   UNL     1     -40.137 -54.218  13.883  1.00  0.00     0.005 C 
HETATM   11  C   UNL     1     -42.389 -54.628  14.563  1.00  0.00     0.009 C 
HETATM   12  C   UNL     1     -41.097 -53.857  12.740  1.00  0.00     0.005 C 
HETATM   13  C   UNL     1     -42.407 -53.544  13.481  1.00  0.00    -0.010 C 
ENDBRANCH   6   7
ENDBRANCH   5   6
ENDBRANCH   3   5
BRANCH   2  14
HETATM   14  C   UNL     1     -42.124 -47.762  10.169  1.00  0.00     0.249 C 
BRANCH  14  15
HETATM   15  N   UNL     1     -43.077 -46.820   9.645  1.00  0.00    -0.264 N 
HETATM   16  C   UNL     1     -44.395 -46.995   9.367  1.00  0.00     0.213 A 
HETATM   17  N   UNL     1     -44.894 -45.844   8.980  1.00  0.00    -0.281 N 
HETATM   18  N   UNL     1     -43.856 -44.944   9.036  1.00  0.00    -0.008 NA
ATOM     19  HN  UNL     1     -45.856 -45.657   8.695  1.00  0.00     0.184 HD
HETATM   20  N   UNL     1     -42.739 -45.531   9.447  1.00  0.00    -0.005 NA
ENDBRANCH  14  15
ENDBRANCH   2  14
TORSDOF 5
ENDMDL
MODEL 9
REMARK VINA RESULT:      -5.3      4.191      7.222
REMARK  5 active torsions:
REMARK  status: ('A' for Active; 'I' for Inactive)
REMARK    1  A    between atoms: C_2  and  C_3 
REMARK       I    between atoms: C_2  and  N_10 
REMARK    2  A    between atoms: C_3  and  N_4 
REMARK    3  A    between atoms: N_10  and  C_11 
REMARK    4  A    between atoms: C_11  and  C_12 
REMARK    5  A    between atoms: C_12  and  C_13 
ROOT
HETATM    1  O   UNL     1     -43.236 -49.668  13.971  1.00  0.00    -0.272 OA
HETATM    2  C   UNL     1     -43.610 -50.629  13.303  1.00  0.00     0.237 C 
HETATM    3  N   UNL     1     -42.807 -51.271  12.382  1.00  0.00    -0.360 N 
HETATM    4  H   UNL     1     -43.211 -51.952  11.750  1.00  0.00     0.162 HD
ENDROOT
BRANCH   3   5
HETATM    5  C   UNL     1     -41.447 -50.841  12.118  1.00  0.00     0.123 C 
BRANCH   5   6
HETATM    6  C   UNL     1     -40.400 -51.691  12.841  1.00  0.00     0.024 C 
BRANCH   6   7
HETATM    7  C   UNL     1     -39.516 -50.853  13.770  1.00  0.00    -0.009 C 
HETATM    8  C   UNL     1     -39.657 -49.332  13.529  1.00  0.00     0.010 C 
HETATM    9  C   UNL     1     -38.201 -48.879  13.315  1.00  0.00    -0.014 C 
HETATM   10  C   UNL     1     -37.719 -49.396  11.947  1.00  0.00     0.005 C 
HETATM   11  C   UNL     1     -37.446 -49.785  14.287  1.00  0.00     0.009 C 
HETATM   12  C   UNL     1     -37.500 -50.895  12.201  1.00  0.00     0.005 C 
HETATM   13  C   UNL     1     -37.984 -51.070  13.649  1.00  0.00    -0.010 C 
ENDBRANCH   6   7
ENDBRANCH   5   6
ENDBRANCH   3   5
BRANCH   2  14
HETATM   14  C   UNL     1     -45.001 -51.197  13.451  1.00  0.00     0.249 C 
BRANCH  14  15
HETATM   15  N   UNL     1     -44.955 -52.632  13.532  1.00  0.00    -0.264 N 
HETATM   16  C   UNL     1     -44.807 -53.427  14.623  1.00  0.00     0.213 A 
HETATM   17  N   UNL     1     -44.901 -54.680  14.241  1.00  0.00    -0.281 N 
HETATM   18  N   UNL     1     -45.127 -54.645  12.885  1.00  0.00    -0.008 NA
ATOM     19  HN  UNL     1     -44.824 -55.509  14.831  1.00  0.00     0.184 HD
HETATM   20  N   UNL     1     -45.166 -53.395  12.442  1.00  0.00    -0.005 NA
ENDBRANCH  14  15
ENDBRANCH   2  14
TORSDOF 5
ENDMDL
