MODEL 1
REMARK VINA RESULT:      -5.5      0.000      0.000
REMARK  4 active torsions:
REMARK  status: ('A' for Active; 'I' for Inactive)
REMARK    1  A    between atoms: C_2  and  C_4 
REMARK    2  A    between atoms: C_4  and  C_5 
REMARK       I    between atoms: C_5  and  N_7 
REMARK    3  A    between atoms: N_7  and  C_8 
REMARK    4  A    between atoms: C_14  and  N_15 
ROOT
HETATM    1  C   UNL     1     -42.264 -47.242   9.820  1.00  0.00     0.079 A 
HETATM    2  C   UNL     1     -43.137 -47.783   8.878  1.00  0.00     0.035 A 
HETATM    3  C   UNL     1     -44.241 -47.046   8.478  1.00  0.00     0.019 A 
HETATM    4  C   UNL     1     -44.412 -45.792   9.032  1.00  0.00     0.090 A 
HETATM    5  N   UNL     1     -43.587 -45.241   9.953  1.00  0.00    -0.351 N 
ATOM      6  HN  UNL     1     -43.774 -44.313  10.334  1.00  0.00     0.166 HD
HETATM    7  C   UNL     1     -42.507 -45.954  10.355  1.00  0.00     0.130 A 
ENDROOT
BRANCH   1   8
HETATM    8  N   UNL     1     -41.180 -48.018  10.306  1.00  0.00    -0.324 N 
HETATM    9  C   UNL     1     -41.348 -48.956  11.312  1.00  0.00     0.222 C 
HETATM   10  O   UNL     1     -42.369 -49.102  11.976  1.00  0.00    -0.273 OA
HETATM   11  H   UNL     1     -40.459 -48.192   9.614  1.00  0.00     0.169 HD
BRANCH   9  12
HETATM   12  C   UNL     1     -40.123 -49.834  11.512  1.00  0.00     0.107 C 
BRANCH  12  13
HETATM   13  C   UNL     1     -38.851 -49.016  11.797  1.00  0.00    -0.014 C 
HETATM   14  C   UNL     1     -38.762 -48.610  13.272  1.00  0.00     0.010 C 
HETATM   15  C   UNL     1     -37.612 -49.824  11.409  1.00  0.00     0.010 C 
ENDBRANCH  12  13
ENDBRANCH   9  12
ENDBRANCH   1   8
BRANCH   7  16
HETATM   16  N   UNL     1     -41.663 -45.412  11.327  1.00  0.00    -0.361 N 
HETATM   17  C   UNL     1     -42.246 -45.153  12.657  1.00  0.00     0.150 C 
HETATM   18  C   UNL     1     -42.404 -43.658  12.958  1.00  0.00     0.187 C 
HETATM   19  O   UNL     1     -41.177 -42.948  12.733  1.00  0.00    -0.388 OA
HETATM   20  C   UNL     1     -40.835 -43.035  11.347  1.00  0.00     0.187 C 
HETATM   21  C   UNL     1     -40.594 -44.484  10.909  1.00  0.00     0.150 C 
ENDBRANCH   7  16
TORSDOF 4
ENDMDL
MODEL 2
REMARK VINA RESULT:      -5.5      2.191      6.087
REMARK  4 active torsions:
REMARK  status: ('A' for Active; 'I' for Inactive)
REMARK    1  A    between atoms: C_2  and  C_4 
REMARK    2  A    between atoms: C_4  and  C_5 
REMARK       I    between atoms: C_5  and  N_7 
REMARK    3  A    between atoms: N_7  and  C_8 
REMARK    4  A    between atoms: C_14  and  N_15 
ROOT
HETATM    1  C   UNL     1     -40.043 -46.908  11.749  1.00  0.00     0.079 A 
HETATM    2  C   UNL     1     -40.063 -45.592  12.210  1.00  0.00     0.035 A 
HETATM    3  C   UNL     1     -39.357 -45.269  13.360  1.00  0.00     0.019 A 
HETATM    4  C   UNL     1     -38.653 -46.278  13.987  1.00  0.00     0.090 A 
HETATM    5  N   UNL     1     -38.619 -47.565  13.569  1.00  0.00    -0.351 N 
ATOM      6  HN  UNL     1     -38.089 -48.268  14.084  1.00  0.00     0.166 HD
HETATM    7  C   UNL     1     -39.307 -47.894  12.450  1.00  0.00     0.130 A 
ENDROOT
BRANCH   1   8
HETATM    8  N   UNL     1     -40.830 -47.275  10.627  1.00  0.00    -0.324 N 
HETATM    9  C   UNL     1     -42.172 -47.600  10.752  1.00  0.00     0.222 C 
HETATM   10  O   UNL     1     -42.763 -47.755  11.816  1.00  0.00    -0.273 OA
HETATM   11  H   UNL     1     -40.527 -46.848   9.758  1.00  0.00     0.169 HD
BRANCH   9  12
HETATM   12  C   UNL     1     -42.876 -47.727   9.411  1.00  0.00     0.107 C 
BRANCH  12  13
HETATM   13  C   UNL     1     -44.268 -47.072   9.410  1.00  0.00    -0.014 C 
HETATM   14  C   UNL     1     -44.206 -45.619   8.931  1.00  0.00     0.010 C 
HETATM   15  C   UNL     1     -45.220 -47.869   8.518  1.00  0.00     0.010 C 
ENDBRANCH  12  13
ENDBRANCH   9  12
ENDBRANCH   1   8
BRANCH   7  16
HETATM   16  N   UNL     1     -39.308 -49.224  12.023  1.00  0.00    -0.361 N 
HETATM   17  C   UNL     1     -40.198 -50.160  12.735  1.00  0.00     0.150 C 
HETATM   18  C   UNL     1     -39.434 -51.168  13.602  1.00  0.00     0.187 C 
HETATM   19  O   UNL     1     -38.406 -51.829  12.849  1.00  0.00    -0.388 OA
HETATM   20  C   UNL     1     -37.440 -50.863  12.428  1.00  0.00     0.187 C 
HETATM   21  C   UNL     1     -38.056 -49.808  11.502  1.00  0.00     0.150 C 
ENDBRANCH   7  16
TORSDOF 4
ENDMDL
MODEL 3
REMARK VINA RESULT:      -5.3      2.801      6.766
REMARK  4 active torsions:
REMARK  status: ('A' for Active; 'I' for Inactive)
REMARK    1  A    between atoms: C_2  and  C_4 
REMARK    2  A    between atoms: C_4  and  C_5 
REMARK       I    between atoms: C_5  and  N_7 
REMARK    3  A    between atoms: N_7  and  C_8 
REMARK    4  A    between atoms: C_14  and  N_15 
ROOT
HETATM    1  C   UNL     1     -40.303 -49.234  11.583  1.00  0.00     0.079 A 
HETATM    2  C   UNL     1     -39.249 -48.360  11.846  1.00  0.00     0.035 A 
HETATM    3  C   UNL     1     -38.438 -48.591  12.947  1.00  0.00     0.019 A 
HETATM    4  C   UNL     1     -38.714 -49.697  13.728  1.00  0.00     0.090 A 
HETATM    5  N   UNL     1     -39.732 -50.560  13.504  1.00  0.00    -0.351 N 
ATOM      6  HN  UNL     1     -39.892 -51.353  14.125  1.00  0.00     0.166 HD
HETATM    7  C   UNL     1     -40.534 -50.342  12.434  1.00  0.00     0.130 A 
ENDROOT
BRANCH   1   8
HETATM    8  N   UNL     1     -41.196 -48.963  10.514  1.00  0.00    -0.324 N 
HETATM    9  C   UNL     1     -42.240 -48.061  10.647  1.00  0.00     0.222 C 
HETATM   10  O   UNL     1     -42.592 -47.540  11.700  1.00  0.00    -0.273 OA
HETATM   11  H   UNL     1     -40.779 -49.070   9.596  1.00  0.00     0.169 HD
BRANCH   9  12
HETATM   12  C   UNL     1     -42.919 -47.745   9.324  1.00  0.00     0.107 C 
BRANCH  12  13
HETATM   13  C   UNL     1     -44.253 -47.001   9.508  1.00  0.00    -0.014 C 
HETATM   14  C   UNL     1     -44.182 -45.573   8.958  1.00  0.00     0.010 C 
HETATM   15  C   UNL     1     -45.379 -47.766   8.811  1.00  0.00     0.010 C 
ENDBRANCH  12  13
ENDBRANCH   9  12
ENDBRANCH   1   8
BRANCH   7  16
HETATM   16  N   UNL     1     -41.609 -51.205  12.207  1.00  0.00    -0.361 N 
HETATM   17  C   UNL     1     -42.837 -50.974  12.990  1.00  0.00     0.150 C 
HETATM   18  C   UNL     1     -43.087 -52.061  14.043  1.00  0.00     0.187 C 
HETATM   19  O   UNL     1     -43.029 -53.372  13.461  1.00  0.00    -0.388 OA
HETATM   20  C   UNL     1     -41.708 -53.604  12.964  1.00  0.00     0.187 C 
HETATM   21  C   UNL     1     -41.333 -52.613  11.857  1.00  0.00     0.150 C 
ENDBRANCH   7  16
TORSDOF 4
ENDMDL
MODEL 4
REMARK VINA RESULT:      -5.2      3.225      5.382
REMARK  4 active torsions:
REMARK  status: ('A' for Active; 'I' for Inactive)
REMARK    1  A    between atoms: C_2  and  C_4 
REMARK    2  A    between atoms: C_4  and  C_5 
REMARK       I    between atoms: C_5  and  N_7 
REMARK    3  A    between atoms: N_7  and  C_8 
REMARK    4  A    between atoms: C_14  and  N_15 
ROOT
HETATM    1  C   UNL     1     -42.479 -48.796  11.585  1.00  0.00     0.079 A 
HETATM    2  C   UNL     1     -43.346 -47.875  10.999  1.00  0.00     0.035 A 
HETATM    3  C   UNL     1     -42.830 -46.695  10.483  1.00  0.00     0.019 A 
HETATM    4  C   UNL     1     -41.466 -46.499  10.566  1.00  0.00     0.090 A 
HETATM    5  N   UNL     1     -40.599 -47.370  11.134  1.00  0.00    -0.351 N 
ATOM      6  HN  UNL     1     -39.601 -47.162  11.176  1.00  0.00     0.166 HD
HETATM    7  C   UNL     1     -41.091 -48.523  11.646  1.00  0.00     0.130 A 
ENDROOT
BRANCH   1   8
HETATM    8  N   UNL     1     -42.999 -49.965  12.197  1.00  0.00    -0.324 N 
HETATM    9  C   UNL     1     -43.481 -49.956  13.497  1.00  0.00     0.222 C 
HETATM   10  O   UNL     1     -43.370 -49.020  14.283  1.00  0.00    -0.273 OA
HETATM   11  H   UNL     1     -43.420 -50.616  11.543  1.00  0.00     0.169 HD
BRANCH   9  12
HETATM   12  C   UNL     1     -44.204 -51.240  13.868  1.00  0.00     0.107 C 
BRANCH  12  13
HETATM   13  C   UNL     1     -45.676 -51.240  13.421  1.00  0.00    -0.014 C 
HETATM   14  C   UNL     1     -45.966 -52.382  12.441  1.00  0.00     0.010 C 
HETATM   15  C   UNL     1     -46.593 -51.360  14.638  1.00  0.00     0.010 C 
ENDBRANCH  12  13
ENDBRANCH   9  12
ENDBRANCH   1   8
BRANCH   7  16
HETATM   16  N   UNL     1     -40.214 -49.418  12.263  1.00  0.00    -0.361 N 
HETATM   17  C   UNL     1     -39.761 -49.086  13.627  1.00  0.00     0.150 C 
HETATM   18  C   UNL     1     -38.283 -48.681  13.684  1.00  0.00     0.187 C 
HETATM   19  O   UNL     1     -37.451 -49.654  13.036  1.00  0.00    -0.388 OA
HETATM   20  C   UNL     1     -37.790 -49.708  11.648  1.00  0.00     0.187 C 
HETATM   21  C   UNL     1     -39.240 -50.154  11.432  1.00  0.00     0.150 C 
ENDBRANCH   7  16
TORSDOF 4
ENDMDL
MODEL 5
REMARK VINA RESULT:      -5.1      5.374      7.684
REMARK  4 active torsions:
REMARK  status: ('A' for Active; 'I' for Inactive)
REMARK    1  A    between atoms: C_2  and  C_4 
REMARK    2  A    between atoms: C_4  and  C_5 
REMARK       I    between atoms: C_5  and  N_7 
REMARK    3  A    between atoms: N_7  and  C_8 
REMARK    4  A    between atoms: C_14  and  N_15 
ROOT
HETATM    1  C   UNL     1     -41.358 -52.538  14.514  1.00  0.00     0.079 A 
HETATM    2  C   UNL     1     -41.538 -53.840  14.978  1.00  0.00     0.035 A 
HETATM    3  C   UNL     1     -40.443 -54.687  15.058  1.00  0.00     0.019 A 
HETATM    4  C   UNL     1     -39.213 -54.184  14.680  1.00  0.00     0.090 A 
HETATM    5  N   UNL     1     -39.006 -52.928  14.219  1.00  0.00    -0.351 N 
ATOM      6  HN  UNL     1     -38.073 -52.619  13.944  1.00  0.00     0.166 HD
HETATM    7  C   UNL     1     -40.069 -52.094  14.132  1.00  0.00     0.130 A 
ENDROOT
BRANCH   1   8
HETATM    8  N   UNL     1     -42.481 -51.688  14.341  1.00  0.00    -0.324 N 
HETATM    9  C   UNL     1     -43.351 -51.837  13.272  1.00  0.00     0.222 C 
HETATM   10  O   UNL     1     -43.169 -52.580  12.314  1.00  0.00    -0.273 OA
HETATM   11  H   UNL     1     -42.859 -51.329  15.211  1.00  0.00     0.169 HD
BRANCH   9  12
HETATM   12  C   UNL     1     -44.604 -50.987  13.409  1.00  0.00     0.107 C 
BRANCH  12  13
HETATM   13  C   UNL     1     -45.885 -51.834  13.506  1.00  0.00    -0.014 C 
HETATM   14  C   UNL     1     -46.749 -51.412  14.698  1.00  0.00     0.010 C 
HETATM   15  C   UNL     1     -46.693 -51.711  12.214  1.00  0.00     0.010 C 
ENDBRANCH  12  13
ENDBRANCH   9  12
ENDBRANCH   1   8
BRANCH   7  16
HETATM   16  N   UNL     1     -39.878 -50.805  13.629  1.00  0.00    -0.361 N 
HETATM   17  C   UNL     1     -39.602 -50.678  12.186  1.00  0.00     0.150 C 
HETATM   18  C   UNL     1     -38.158 -50.258  11.887  1.00  0.00     0.187 C 
HETATM   19  O   UNL     1     -37.792 -49.088  12.635  1.00  0.00    -0.388 OA
HETATM   20  C   UNL     1     -37.831 -49.395  14.031  1.00  0.00     0.187 C 
HETATM   21  C   UNL     1     -39.240 -49.788  14.489  1.00  0.00     0.150 C 
ENDBRANCH   7  16
TORSDOF 4
ENDMDL
MODEL 6
REMARK VINA RESULT:      -5.0      4.401      7.174
REMARK  4 active torsions:
REMARK  status: ('A' for Active; 'I' for Inactive)
REMARK    1  A    between atoms: C_2  and  C_4 
REMARK    2  A    between atoms: C_4  and  C_5 
REMARK       I    between atoms: C_5  and  N_7 
REMARK    3  A    between atoms: N_7  and  C_8 
REMARK    4  A    between atoms: C_14  and  N_15 
ROOT
HETATM    1  C   UNL     1     -41.993 -52.257  12.463  1.00  0.00     0.079 A 
HETATM    2  C   UNL     1     -40.871 -53.083  12.504  1.00  0.00     0.035 A 
HETATM    3  C   UNL     1     -40.872 -54.184  13.348  1.00  0.00     0.019 A 
HETATM    4  C   UNL     1     -42.006 -54.413  14.104  1.00  0.00     0.090 A 
HETATM    5  N   UNL     1     -43.108 -53.627  14.092  1.00  0.00    -0.351 N 
ATOM      6  HN  UNL     1     -43.910 -53.842  14.683  1.00  0.00     0.166 HD
HETATM    7  C   UNL     1     -43.116 -52.546  13.275  1.00  0.00     0.130 A 
ENDROOT
BRANCH   1   8
HETATM    8  N   UNL     1     -41.974 -51.078  11.674  1.00  0.00    -0.324 N 
HETATM    9  C   UNL     1     -41.357 -49.916  12.111  1.00  0.00     0.222 C 
HETATM   10  O   UNL     1     -40.918 -49.735  13.242  1.00  0.00    -0.273 OA
HETATM   11  H   UNL     1     -41.992 -51.255  10.675  1.00  0.00     0.169 HD
BRANCH   9  12
HETATM   12  C   UNL     1     -41.246 -48.860  11.023  1.00  0.00     0.107 C 
BRANCH  12  13
HETATM   13  C   UNL     1     -41.983 -47.559  11.386  1.00  0.00    -0.014 C 
HETATM   14  C   UNL     1     -41.354 -46.345  10.695  1.00  0.00     0.010 C 
HETATM   15  C   UNL     1     -43.458 -47.667  10.998  1.00  0.00     0.010 C 
ENDBRANCH  12  13
ENDBRANCH   9  12
ENDBRANCH   1   8
BRANCH   7  16
HETATM   16  N   UNL     1     -44.233 -51.707  13.274  1.00  0.00    -0.361 N 
HETATM   17  C   UNL     1     -44.347 -50.735  14.377  1.00  0.00     0.150 C 
HETATM   18  C   UNL     1     -45.471 -51.077  15.362  1.00  0.00     0.187 C 
HETATM   19  O   UNL     1     -46.713 -51.299  14.677  1.00  0.00    -0.388 OA
HETATM   20  C   UNL     1     -46.579 -52.439  13.824  1.00  0.00     0.187 C 
HETATM   21  C   UNL     1     -45.512 -52.220  12.745  1.00  0.00     0.150 C 
ENDBRANCH   7  16
TORSDOF 4
ENDMDL
MODEL 7
REMARK VINA RESULT:      -5.0      3.683      6.100
REMARK  4 active torsions:
REMARK  status: ('A' for Active; 'I' for Inactive)
REMARK    1  A    between atoms: C_2  and  C_4 
REMARK    2  A    between atoms: C_4  and  C_5 
REMARK       I    between atoms: C_5  and  N_7 
REMARK    3  A    between atoms: N_7  and  C_8 
REMARK    4  A    between atoms: C_14  and  N_15 
ROOT
HETATM    1  C   UNL     1     -41.383 -51.432  12.664  1.00  0.00     0.079 A 
HETATM    2  C   UNL     1     -40.355 -52.239  13.148  1.00  0.00     0.035 A 
HETATM    3  C   UNL     1     -39.105 -51.680  13.371  1.00  0.00     0.019 A 
HETATM    4  C   UNL     1     -38.948 -50.332  13.110  1.00  0.00     0.090 A 
HETATM    5  N   UNL     1     -39.923 -49.524  12.633  1.00  0.00    -0.351 N 
ATOM      6  HN  UNL     1     -39.742 -48.537  12.449  1.00  0.00     0.166 HD
HETATM    7  C   UNL     1     -41.147 -50.060  12.408  1.00  0.00     0.130 A 
ENDROOT
BRANCH   1   8
HETATM    8  N   UNL     1     -42.641 -52.006  12.346  1.00  0.00    -0.324 N 
HETATM    9  C   UNL     1     -43.612 -52.217  13.313  1.00  0.00     0.222 C 
HETATM   10  O   UNL     1     -43.443 -52.087  14.521  1.00  0.00    -0.273 OA
HETATM   11  H   UNL     1     -42.952 -51.812  11.400  1.00  0.00     0.169 HD
BRANCH   9  12
HETATM   12  C   UNL     1     -44.956 -52.614  12.724  1.00  0.00     0.107 C 
BRANCH  12  13
HETATM   13  C   UNL     1     -45.990 -51.477  12.792  1.00  0.00    -0.014 C 
HETATM   14  C   UNL     1     -47.053 -51.617  11.698  1.00  0.00     0.010 C 
HETATM   15  C   UNL     1     -46.661 -51.462  14.165  1.00  0.00     0.010 C 
ENDBRANCH  12  13
ENDBRANCH   9  12
ENDBRANCH   1   8
BRANCH   7  16
HETATM   16  N   UNL     1     -42.156 -49.246  11.887  1.00  0.00    -0.361 N 
HETATM   17  C   UNL     1     -41.855 -48.511  10.644  1.00  0.00     0.150 C 
HETATM   18  C   UNL     1     -41.711 -47.000  10.863  1.00  0.00     0.187 C 
HETATM   19  O   UNL     1     -42.838 -46.467  11.574  1.00  0.00    -0.388 OA
HETATM   20  C   UNL     1     -42.886 -47.051  12.879  1.00  0.00     0.187 C 
HETATM   21  C   UNL     1     -43.081 -48.570  12.818  1.00  0.00     0.150 C 
ENDBRANCH   7  16
TORSDOF 4
ENDMDL
MODEL 8
REMARK VINA RESULT:      -5.0      4.780      7.687
REMARK  4 active torsions:
REMARK  status: ('A' for Active; 'I' for Inactive)
REMARK    1  A    between atoms: C_2  and  C_4 
REMARK    2  A    between atoms: C_4  and  C_5 
REMARK       I    between atoms: C_5  and  N_7 
REMARK    3  A    between atoms: N_7  and  C_8 
REMARK    4  A    between atoms: C_14  and  N_15 
ROOT
HETATM    1  C   UNL     1     -42.089 -52.777  12.538  1.00  0.00     0.079 A 
HETATM    2  C   UNL     1     -43.409 -52.965  12.131  1.00  0.00     0.035 A 
HETATM    3  C   UNL     1     -44.214 -53.847  12.835  1.00  0.00     0.019 A 
HETATM    4  C   UNL     1     -43.662 -54.493  13.924  1.00  0.00     0.090 A 
HETATM    5  N   UNL     1     -42.383 -54.338  14.340  1.00  0.00    -0.351 N 
ATOM      6  HN  UNL     1     -42.029 -54.853  15.147  1.00  0.00     0.166 HD
HETATM    7  C   UNL     1     -41.585 -53.482  13.658  1.00  0.00     0.130 A 
ENDROOT
BRANCH   1   8
HETATM    8  N   UNL     1     -41.226 -51.947  11.776  1.00  0.00    -0.324 N 
HETATM    9  C   UNL     1     -41.108 -50.590  12.031  1.00  0.00     0.222 C 
HETATM   10  O   UNL     1     -41.821 -49.952  12.800  1.00  0.00    -0.273 OA
HETATM   11  H   UNL     1     -40.414 -52.430  11.408  1.00  0.00     0.169 HD
BRANCH   9  12
HETATM   12  C   UNL     1     -39.965 -49.943  11.267  1.00  0.00     0.107 C 
BRANCH  12  13
HETATM   13  C   UNL     1     -38.655 -49.915  12.074  1.00  0.00    -0.014 C 
HETATM   14  C   UNL     1     -37.429 -49.987  11.159  1.00  0.00     0.010 C 
HETATM   15  C   UNL     1     -38.591 -48.646  12.924  1.00  0.00     0.010 C 
ENDBRANCH  12  13
ENDBRANCH   9  12
ENDBRANCH   1   8
BRANCH   7  16
HETATM   16  N   UNL     1     -40.254 -53.334  14.056  1.00  0.00    -0.361 N 
HETATM   17  C   UNL     1     -39.380 -54.516  13.935  1.00  0.00     0.150 C 
HETATM   18  C   UNL     1     -38.991 -55.113  15.292  1.00  0.00     0.187 C 
HETATM   19  O   UNL     1     -38.463 -54.109  16.171  1.00  0.00    -0.388 OA
HETATM   20  C   UNL     1     -39.482 -53.144  16.444  1.00  0.00     0.187 C 
HETATM   21  C   UNL     1     -39.939 -52.421  15.172  1.00  0.00     0.150 C 
ENDBRANCH   7  16
TORSDOF 4
ENDMDL
MODEL 9
REMARK VINA RESULT:      -4.9      3.397      5.623
REMARK  4 active torsions:
REMARK  status: ('A' for Active; 'I' for Inactive)
REMARK    1  A    between atoms: C_2  and  C_4 
REMARK    2  A    between atoms: C_4  and  C_5 
REMARK       I    between atoms: C_5  and  N_7 
REMARK    3  A    between atoms: N_7  and  C_8 
REMARK    4  A    between atoms: C_14  and  N_15 
ROOT
HETATM    1  C   UNL     1     -39.778 -50.543  12.967  1.00  0.00     0.079 A 
HETATM    2  C   UNL     1     -38.576 -51.249  12.987  1.00  0.00     0.035 A 
HETATM    3  C   UNL     1     -37.493 -50.760  12.270  1.00  0.00     0.019 A 
HETATM    4  C   UNL     1     -37.663 -49.579  11.576  1.00  0.00     0.090 A 
HETATM    5  N   UNL     1     -38.817 -48.873  11.530  1.00  0.00    -0.351 N 
ATOM      6  HN  UNL     1     -38.883 -48.012  10.989  1.00  0.00     0.166 HD
HETATM    7  C   UNL     1     -39.883 -49.343  12.223  1.00  0.00     0.130 A 
ENDROOT
BRANCH   1   8
HETATM    8  N   UNL     1     -40.920 -51.073  13.621  1.00  0.00    -0.324 N 
HETATM    9  C   UNL     1     -41.751 -51.996  13.004  1.00  0.00     0.222 C 
HETATM   10  O   UNL     1     -41.688 -52.321  11.823  1.00  0.00    -0.273 OA
HETATM   11  H   UNL     1     -40.827 -51.122  14.630  1.00  0.00     0.169 HD
BRANCH   9  12
HETATM   12  C   UNL     1     -42.765 -52.606  13.958  1.00  0.00     0.107 C 
BRANCH  12  13
HETATM   13  C   UNL     1     -43.048 -54.087  13.650  1.00  0.00    -0.014 C 
HETATM   14  C   UNL     1     -42.906 -54.959  14.902  1.00  0.00     0.010 C 
HETATM   15  C   UNL     1     -44.454 -54.242  13.070  1.00  0.00     0.010 C 
ENDBRANCH  12  13
ENDBRANCH   9  12
ENDBRANCH   1   8
BRANCH   7  16
HETATM   16  N   UNL     1     -41.090 -48.643  12.162  1.00  0.00    -0.361 N 
HETATM   17  C   UNL     1     -41.678 -48.429  10.826  1.00  0.00     0.150 C 
HETATM   18  C   UNL     1     -41.610 -46.966  10.371  1.00  0.00     0.187 C 
HETATM   19  O   UNL     1     -42.145 -46.085  11.370  1.00  0.00    -0.388 OA
HETATM   20  C   UNL     1     -41.337 -46.168  12.547  1.00  0.00     0.187 C 
HETATM   21  C   UNL     1     -41.350 -47.577  13.149  1.00  0.00     0.150 C 
ENDBRANCH   7  16
TORSDOF 4
ENDMDL
