MODEL 1
REMARK VINA RESULT:      -6.6      0.000      0.000
REMARK  4 active torsions:
REMARK  status: ('A' for Active; 'I' for Inactive)
REMARK    1  A    between atoms: N_1  and  C_8 
REMARK    2  A    between atoms: N_2  and  C_7 
REMARK    3  A    between atoms: C_8  and  C_9 
REMARK       I    between atoms: C_9  and  N_12 
REMARK    4  A    between atoms: N_12  and  C_16 
ROOT
HETATM    1  N   UNL     1     -39.927 -50.829  12.096  1.00  0.00    -0.255 N 
HETATM    2  N   UNL     1     -39.634 -48.510  12.442  1.00  0.00    -0.279 N 
HETATM    3  C   UNL     1     -40.279 -49.531  11.744  1.00  0.00     0.334 C 
HETATM    4  C   UNL     1     -38.868 -51.154  12.933  1.00  0.00     0.292 C 
HETATM    5  C   UNL     1     -38.134 -50.003  13.495  1.00  0.00     0.200 C 
HETATM    6  C   UNL     1     -38.563 -48.762  13.275  1.00  0.00     0.146 C 
HETATM    7  O   UNL     1     -41.130 -49.305  10.885  1.00  0.00    -0.246 OA
HETATM    8  O   UNL     1     -38.565 -52.303  13.238  1.00  0.00    -0.264 OA
HETATM    9  F   UNL     1     -37.090 -50.268  14.305  1.00  0.00    -0.199 F 
ENDROOT
BRANCH   1  10
HETATM   10  C   UNL     1     -40.887 -51.887  11.798  1.00  0.00     0.240 C 
BRANCH  10  11
HETATM   11  C   UNL     1     -42.029 -52.182  12.770  1.00  0.00     0.240 C 
HETATM   12  N   UNL     1     -43.145 -51.369  12.665  1.00  0.00    -0.326 N 
HETATM   13  H   UNL     1     -43.157 -50.695  11.910  1.00  0.00     0.169 HD
HETATM   14  O   UNL     1     -41.824 -52.990  13.676  1.00  0.00    -0.271 OA
BRANCH  12  15
HETATM   15  C   UNL     1     -44.234 -51.317  13.574  1.00  0.00     0.034 A 
HETATM   16  C   UNL     1     -44.126 -50.909  14.907  1.00  0.00     0.029 A 
HETATM   17  C   UNL     1     -45.250 -50.825  15.733  1.00  0.00     0.002 A 
HETATM   18  C   UNL     1     -46.505 -51.166  15.241  1.00  0.00     0.000 A 
HETATM   19  C   UNL     1     -46.629 -51.599  13.924  1.00  0.00     0.002 A 
HETATM   20  C   UNL     1     -45.501 -51.674  13.095  1.00  0.00     0.029 A 
ENDBRANCH  12  15
ENDBRANCH  10  11
ENDBRANCH   1  10
BRANCH   2  21
HETATM   21  C   UNL     1     -40.190 -47.172  12.276  1.00  0.00     0.232 C 
HETATM   22  O   UNL     1     -39.803 -46.553  11.037  1.00  0.00    -0.366 OA
HETATM   23  C   UNL     1     -39.923 -45.129  11.224  1.00  0.00     0.170 C 
HETATM   24  C   UNL     1     -40.071 -44.866  12.712  1.00  0.00     0.031 C 
HETATM   25  C   UNL     1     -39.706 -46.189  13.334  1.00  0.00     0.056 C 
ENDBRANCH   2  21
TORSDOF 4
ENDMDL
MODEL 2
REMARK VINA RESULT:      -6.3      3.853      6.834
REMARK  4 active torsions:
REMARK  status: ('A' for Active; 'I' for Inactive)
REMARK    1  A    between atoms: N_1  and  C_8 
REMARK    2  A    between atoms: N_2  and  C_7 
REMARK    3  A    between atoms: C_8  and  C_9 
REMARK       I    between atoms: C_9  and  N_12 
REMARK    4  A    between atoms: N_12  and  C_16 
ROOT
HETATM    1  N   UNL     1     -41.237 -53.601  12.952  1.00  0.00    -0.255 N 
HETATM    2  N   UNL     1     -40.611 -54.575  15.013  1.00  0.00    -0.279 N 
HETATM    3  C   UNL     1     -40.216 -54.051  13.781  1.00  0.00     0.334 C 
HETATM    4  C   UNL     1     -42.588 -53.814  13.189  1.00  0.00     0.292 C 
HETATM    5  C   UNL     1     -42.905 -54.528  14.441  1.00  0.00     0.200 C 
HETATM    6  C   UNL     1     -41.936 -54.828  15.304  1.00  0.00     0.146 C 
HETATM    7  O   UNL     1     -39.034 -53.965  13.453  1.00  0.00    -0.246 OA
HETATM    8  O   UNL     1     -43.483 -53.411  12.450  1.00  0.00    -0.264 OA
HETATM    9  F   UNL     1     -44.203 -54.767  14.709  1.00  0.00    -0.199 F 
ENDROOT
BRANCH   1  10
HETATM   10  C   UNL     1     -40.887 -52.616  11.935  1.00  0.00     0.240 C 
BRANCH  10  11
HETATM   11  C   UNL     1     -40.941 -51.124  12.261  1.00  0.00     0.240 C 
HETATM   12  N   UNL     1     -42.046 -50.435  11.792  1.00  0.00    -0.326 N 
HETATM   13  H   UNL     1     -42.771 -50.978  11.338  1.00  0.00     0.169 HD
HETATM   14  O   UNL     1     -39.941 -50.603  12.759  1.00  0.00    -0.271 OA
BRANCH  12  15
HETATM   15  C   UNL     1     -42.221 -49.027  11.793  1.00  0.00     0.034 A 
HETATM   16  C   UNL     1     -42.890 -48.320  12.795  1.00  0.00     0.029 A 
HETATM   17  C   UNL     1     -42.976 -46.924  12.765  1.00  0.00     0.002 A 
HETATM   18  C   UNL     1     -42.406 -46.213  11.715  1.00  0.00     0.000 A 
HETATM   19  C   UNL     1     -41.758 -46.901  10.694  1.00  0.00     0.002 A 
HETATM   20  C   UNL     1     -41.666 -48.300  10.731  1.00  0.00     0.029 A 
ENDBRANCH  12  15
ENDBRANCH  10  11
ENDBRANCH   1  10
BRANCH   2  21
HETATM   21  C   UNL     1     -39.547 -54.791  15.986  1.00  0.00     0.232 C 
HETATM   22  O   UNL     1     -38.985 -56.112  15.920  1.00  0.00    -0.366 OA
HETATM   23  C   UNL     1     -38.392 -56.382  17.206  1.00  0.00     0.170 C 
HETATM   24  C   UNL     1     -38.893 -55.329  18.179  1.00  0.00     0.031 C 
HETATM   25  C   UNL     1     -40.026 -54.678  17.428  1.00  0.00     0.056 C 
ENDBRANCH   2  21
TORSDOF 4
ENDMDL
MODEL 3
REMARK VINA RESULT:      -6.3      2.836      6.073
REMARK  4 active torsions:
REMARK  status: ('A' for Active; 'I' for Inactive)
REMARK    1  A    between atoms: N_1  and  C_8 
REMARK    2  A    between atoms: N_2  and  C_7 
REMARK    3  A    between atoms: C_8  and  C_9 
REMARK       I    between atoms: C_9  and  N_12 
REMARK    4  A    between atoms: N_12  and  C_16 
ROOT
HETATM    1  N   UNL     1     -41.123 -50.944  13.520  1.00  0.00    -0.255 N 
HETATM    2  N   UNL     1     -43.175 -51.875  14.235  1.00  0.00    -0.279 N 
HETATM    3  C   UNL     1     -42.330 -50.765  14.187  1.00  0.00     0.334 C 
HETATM    4  C   UNL     1     -40.643 -52.172  13.087  1.00  0.00     0.292 C 
HETATM    5  C   UNL     1     -41.536 -53.321  13.334  1.00  0.00     0.200 C 
HETATM    6  C   UNL     1     -42.753 -53.127  13.838  1.00  0.00     0.146 C 
HETATM    7  O   UNL     1     -42.641 -49.681  14.678  1.00  0.00    -0.246 OA
HETATM    8  O   UNL     1     -39.575 -52.319  12.500  1.00  0.00    -0.264 OA
HETATM    9  F   UNL     1     -41.108 -54.536  12.940  1.00  0.00    -0.199 F 
ENDROOT
BRANCH   1  10
HETATM   10  C   UNL     1     -40.462 -49.751  13.002  1.00  0.00     0.240 C 
BRANCH  10  11
HETATM   11  C   UNL     1     -40.997 -49.062  11.748  1.00  0.00     0.240 C 
HETATM   12  N   UNL     1     -41.914 -48.045  11.953  1.00  0.00    -0.326 N 
HETATM   13  H   UNL     1     -42.104 -47.781  12.912  1.00  0.00     0.169 HD
HETATM   14  O   UNL     1     -40.718 -49.554  10.653  1.00  0.00    -0.271 OA
BRANCH  12  15
HETATM   15  C   UNL     1     -42.691 -47.402  10.955  1.00  0.00     0.034 A 
HETATM   16  C   UNL     1     -42.257 -46.303  10.209  1.00  0.00     0.029 A 
HETATM   17  C   UNL     1     -43.052 -45.752   9.199  1.00  0.00     0.002 A 
HETATM   18  C   UNL     1     -44.308 -46.285   8.932  1.00  0.00     0.000 A 
HETATM   19  C   UNL     1     -44.769 -47.362   9.682  1.00  0.00     0.002 A 
HETATM   20  C   UNL     1     -43.967 -47.918  10.688  1.00  0.00     0.029 A 
ENDBRANCH  12  15
ENDBRANCH  10  11
ENDBRANCH   1  10
BRANCH   2  21
HETATM   21  C   UNL     1     -44.539 -51.620  14.683  1.00  0.00     0.232 C 
HETATM   22  O   UNL     1     -45.150 -52.766  15.301  1.00  0.00    -0.366 OA
HETATM   23  C   UNL     1     -46.577 -52.592  15.190  1.00  0.00     0.170 C 
HETATM   24  C   UNL     1     -46.833 -51.476  14.192  1.00  0.00     0.031 C 
HETATM   25  C   UNL     1     -45.488 -51.281  13.541  1.00  0.00     0.056 C 
ENDBRANCH   2  21
TORSDOF 4
ENDMDL
MODEL 4
REMARK VINA RESULT:      -6.2      2.845      3.861
REMARK  4 active torsions:
REMARK  status: ('A' for Active; 'I' for Inactive)
REMARK    1  A    between atoms: N_1  and  C_8 
REMARK    2  A    between atoms: N_2  and  C_7 
REMARK    3  A    between atoms: C_8  and  C_9 
REMARK       I    between atoms: C_9  and  N_12 
REMARK    4  A    between atoms: N_12  and  C_16 
ROOT
HETATM    1  N   UNL     1     -40.270 -53.799  15.374  1.00  0.00    -0.255 N 
HETATM    2  N   UNL     1     -39.271 -51.966  14.264  1.00  0.00    -0.279 N 
HETATM    3  C   UNL     1     -39.779 -53.264  14.188  1.00  0.00     0.334 C 
HETATM    4  C   UNL     1     -40.110 -53.213  16.622  1.00  0.00     0.292 C 
HETATM    5  C   UNL     1     -39.409 -51.914  16.624  1.00  0.00     0.200 C 
HETATM    6  C   UNL     1     -39.071 -51.334  15.474  1.00  0.00     0.146 C 
HETATM    7  O   UNL     1     -39.820 -53.893  13.132  1.00  0.00    -0.246 OA
HETATM    8  O   UNL     1     -40.548 -53.693  17.663  1.00  0.00    -0.264 OA
HETATM    9  F   UNL     1     -39.221 -51.311  17.813  1.00  0.00    -0.199 F 
ENDROOT
BRANCH   1  10
HETATM   10  C   UNL     1     -41.241 -54.883  15.267  1.00  0.00     0.240 C 
BRANCH  10  11
HETATM   11  C   UNL     1     -42.682 -54.584  14.856  1.00  0.00     0.240 C 
HETATM   12  N   UNL     1     -42.918 -53.328  14.325  1.00  0.00    -0.326 N 
HETATM   13  H   UNL     1     -42.114 -52.731  14.175  1.00  0.00     0.169 HD
HETATM   14  O   UNL     1     -43.555 -55.394  15.174  1.00  0.00    -0.271 OA
BRANCH  12  15
HETATM   15  C   UNL     1     -44.188 -52.752  14.061  1.00  0.00     0.034 A 
HETATM   16  C   UNL     1     -44.872 -51.917  14.948  1.00  0.00     0.029 A 
HETATM   17  C   UNL     1     -46.095 -51.336  14.601  1.00  0.00     0.002 A 
HETATM   18  C   UNL     1     -46.664 -51.597  13.360  1.00  0.00     0.000 A 
HETATM   19  C   UNL     1     -46.012 -52.447  12.472  1.00  0.00     0.002 A 
HETATM   20  C   UNL     1     -44.781 -53.022  12.820  1.00  0.00     0.029 A 
ENDBRANCH  12  15
ENDBRANCH  10  11
ENDBRANCH   1  10
BRANCH   2  21
HETATM   21  C   UNL     1     -39.014 -51.306  12.990  1.00  0.00     0.232 C 
HETATM   22  O   UNL     1     -37.652 -51.445  12.551  1.00  0.00    -0.366 OA
HETATM   23  C   UNL     1     -37.388 -50.353  11.647  1.00  0.00     0.170 C 
HETATM   24  C   UNL     1     -38.513 -49.344  11.796  1.00  0.00     0.031 C 
HETATM   25  C   UNL     1     -39.219 -49.797  13.048  1.00  0.00     0.056 C 
ENDBRANCH   2  21
TORSDOF 4
ENDMDL
MODEL 5
REMARK VINA RESULT:      -6.0      5.935      8.017
REMARK  4 active torsions:
REMARK  status: ('A' for Active; 'I' for Inactive)
REMARK    1  A    between atoms: N_1  and  C_8 
REMARK    2  A    between atoms: N_2  and  C_7 
REMARK    3  A    between atoms: C_8  and  C_9 
REMARK       I    between atoms: C_9  and  N_12 
REMARK    4  A    between atoms: N_12  and  C_16 
ROOT
HETATM    1  N   UNL     1     -45.483 -53.900  14.359  1.00  0.00    -0.255 N 
HETATM    2  N   UNL     1     -46.558 -52.307  15.736  1.00  0.00    -0.279 N 
HETATM    3  C   UNL     1     -45.980 -53.572  15.615  1.00  0.00     0.334 C 
HETATM    4  C   UNL     1     -45.697 -53.147  13.212  1.00  0.00     0.292 C 
HETATM    5  C   UNL     1     -46.467 -51.904  13.409  1.00  0.00     0.200 C 
HETATM    6  C   UNL     1     -46.815 -51.517  14.635  1.00  0.00     0.146 C 
HETATM    7  O   UNL     1     -45.886 -54.346  16.567  1.00  0.00    -0.246 OA
HETATM    8  O   UNL     1     -45.254 -53.445  12.107  1.00  0.00    -0.264 OA
HETATM    9  F   UNL     1     -46.710 -51.145  12.322  1.00  0.00    -0.199 F 
ENDROOT
BRANCH   1  10
HETATM   10  C   UNL     1     -44.454 -54.931  14.295  1.00  0.00     0.240 C 
BRANCH  10  11
HETATM   11  C   UNL     1     -42.996 -54.580  14.591  1.00  0.00     0.240 C 
HETATM   12  N   UNL     1     -42.445 -55.162  15.719  1.00  0.00    -0.326 N 
HETATM   13  H   UNL     1     -43.015 -55.834  16.218  1.00  0.00     0.169 HD
HETATM   14  O   UNL     1     -42.468 -53.688  13.924  1.00  0.00    -0.271 OA
BRANCH  12  15
HETATM   15  C   UNL     1     -41.193 -54.838  16.305  1.00  0.00     0.034 A 
HETATM   16  C   UNL     1     -39.969 -55.363  15.883  1.00  0.00     0.029 A 
HETATM   17  C   UNL     1     -38.765 -54.956  16.467  1.00  0.00     0.002 A 
HETATM   18  C   UNL     1     -38.770 -54.026  17.500  1.00  0.00     0.000 A 
HETATM   19  C   UNL     1     -39.982 -53.512  17.952  1.00  0.00     0.002 A 
HETATM   20  C   UNL     1     -41.186 -53.914  17.359  1.00  0.00     0.029 A 
ENDBRANCH  12  15
ENDBRANCH  10  11
ENDBRANCH   1  10
BRANCH   2  21
HETATM   21  C   UNL     1     -46.828 -51.856  17.096  1.00  0.00     0.232 C 
HETATM   22  O   UNL     1     -48.220 -51.588  17.334  1.00  0.00    -0.366 OA
HETATM   23  C   UNL     1     -48.288 -50.668  18.442  1.00  0.00     0.170 C 
HETATM   24  C   UNL     1     -46.894 -50.111  18.670  1.00  0.00     0.031 C 
HETATM   25  C   UNL     1     -46.146 -50.535  17.432  1.00  0.00     0.056 C 
ENDBRANCH   2  21
TORSDOF 4
ENDMDL
MODEL 6
REMARK VINA RESULT:      -6.0      1.455      1.810
REMARK  4 active torsions:
REMARK  status: ('A' for Active; 'I' for Inactive)
REMARK    1  A    between atoms: N_1  and  C_8 
REMARK    2  A    between atoms: N_2  and  C_7 
REMARK    3  A    between atoms: C_8  and  C_9 
REMARK       I    between atoms: C_9  and  N_12 
REMARK    4  A    between atoms: N_12  and  C_16 
ROOT
HETATM    1  N   UNL     1     -40.188 -50.159  13.441  1.00  0.00    -0.255 N 
HETATM    2  N   UNL     1     -39.785 -48.156  12.252  1.00  0.00    -0.279 N 
HETATM    3  C   UNL     1     -40.628 -48.887  13.091  1.00  0.00     0.334 C 
HETATM    4  C   UNL     1     -39.094 -50.794  12.869  1.00  0.00     0.292 C 
HETATM    5  C   UNL     1     -38.359 -50.001  11.865  1.00  0.00     0.200 C 
HETATM    6  C   UNL     1     -38.692 -48.732  11.638  1.00  0.00     0.146 C 
HETATM    7  O   UNL     1     -41.686 -48.430  13.521  1.00  0.00    -0.246 OA
HETATM    8  O   UNL     1     -38.714 -51.917  13.186  1.00  0.00    -0.264 OA
HETATM    9  F   UNL     1     -37.295 -50.579  11.274  1.00  0.00    -0.199 F 
ENDROOT
BRANCH   1  10
HETATM   10  C   UNL     1     -40.730 -50.741  14.664  1.00  0.00     0.240 C 
BRANCH  10  11
HETATM   11  C   UNL     1     -42.126 -51.364  14.664  1.00  0.00     0.240 C 
HETATM   12  N   UNL     1     -43.190 -50.481  14.704  1.00  0.00    -0.326 N 
HETATM   13  H   UNL     1     -42.973 -49.493  14.652  1.00  0.00     0.169 HD
HETATM   14  O   UNL     1     -42.213 -52.586  14.799  1.00  0.00    -0.271 OA
BRANCH  12  15
HETATM   15  C   UNL     1     -44.553 -50.816  14.912  1.00  0.00     0.034 A 
HETATM   16  C   UNL     1     -45.417 -51.251  13.904  1.00  0.00     0.029 A 
HETATM   17  C   UNL     1     -46.735 -51.622  14.188  1.00  0.00     0.002 A 
HETATM   18  C   UNL     1     -47.216 -51.546  15.490  1.00  0.00     0.000 A 
HETATM   19  C   UNL     1     -46.378 -51.091  16.504  1.00  0.00     0.002 A 
HETATM   20  C   UNL     1     -45.055 -50.728  16.218  1.00  0.00     0.029 A 
ENDBRANCH  12  15
ENDBRANCH  10  11
ENDBRANCH   1  10
BRANCH   2  21
HETATM   21  C   UNL     1     -40.102 -46.740  12.107  1.00  0.00     0.232 C 
HETATM   22  O   UNL     1     -39.820 -46.234  10.791  1.00  0.00    -0.366 OA
HETATM   23  C   UNL     1     -39.638 -44.810  10.918  1.00  0.00     0.170 C 
HETATM   24  C   UNL     1     -39.482 -44.491  12.394  1.00  0.00     0.031 C 
HETATM   25  C   UNL     1     -39.271 -45.846  13.019  1.00  0.00     0.056 C 
ENDBRANCH   2  21
TORSDOF 4
ENDMDL
MODEL 7
REMARK VINA RESULT:      -6.0      2.291      6.778
REMARK  4 active torsions:
REMARK  status: ('A' for Active; 'I' for Inactive)
REMARK    1  A    between atoms: N_1  and  C_8 
REMARK    2  A    between atoms: N_2  and  C_7 
REMARK    3  A    between atoms: C_8  and  C_9 
REMARK       I    between atoms: C_9  and  N_12 
REMARK    4  A    between atoms: N_12  and  C_16 
ROOT
HETATM    1  N   UNL     1     -40.985 -50.954  12.580  1.00  0.00    -0.255 N 
HETATM    2  N   UNL     1     -42.447 -52.514  13.589  1.00  0.00    -0.279 N 
HETATM    3  C   UNL     1     -42.271 -51.254  13.013  1.00  0.00     0.334 C 
HETATM    4  C   UNL     1     -39.866 -51.728  12.855  1.00  0.00     0.292 C 
HETATM    5  C   UNL     1     -40.126 -52.964  13.618  1.00  0.00     0.200 C 
HETATM    6  C   UNL     1     -41.376 -53.324  13.904  1.00  0.00     0.146 C 
HETATM    7  O   UNL     1     -43.201 -50.462  12.869  1.00  0.00    -0.246 OA
HETATM    8  O   UNL     1     -38.734 -51.454  12.467  1.00  0.00    -0.264 OA
HETATM    9  F   UNL     1     -39.069 -53.743  13.918  1.00  0.00    -0.199 F 
ENDROOT
BRANCH   1  10
HETATM   10  C   UNL     1     -40.848 -49.928  11.552  1.00  0.00     0.240 C 
BRANCH  10  11
HETATM   11  C   UNL     1     -40.861 -48.449  11.937  1.00  0.00     0.240 C 
HETATM   12  N   UNL     1     -41.232 -47.563  10.941  1.00  0.00    -0.326 N 
HETATM   13  H   UNL     1     -41.540 -47.958  10.061  1.00  0.00     0.169 HD
HETATM   14  O   UNL     1     -40.388 -48.131  13.029  1.00  0.00    -0.271 OA
BRANCH  12  15
HETATM   15  C   UNL     1     -41.128 -46.148  10.994  1.00  0.00     0.034 A 
HETATM   16  C   UNL     1     -42.114 -45.308  11.519  1.00  0.00     0.029 A 
HETATM   17  C   UNL     1     -41.923 -43.925  11.595  1.00  0.00     0.002 A 
HETATM   18  C   UNL     1     -40.744 -43.357  11.129  1.00  0.00     0.000 A 
HETATM   19  C   UNL     1     -39.760 -44.174  10.579  1.00  0.00     0.002 A 
HETATM   20  C   UNL     1     -39.950 -45.561  10.512  1.00  0.00     0.029 A 
ENDBRANCH  12  15
ENDBRANCH  10  11
ENDBRANCH   1  10
BRANCH   2  21
HETATM   21  C   UNL     1     -43.827 -52.937  13.790  1.00  0.00     0.232 C 
HETATM   22  O   UNL     1     -44.105 -53.321  15.147  1.00  0.00    -0.366 OA
HETATM   23  C   UNL     1     -45.246 -54.202  15.110  1.00  0.00     0.170 C 
HETATM   24  C   UNL     1     -45.463 -54.620  13.666  1.00  0.00     0.031 C 
HETATM   25  C   UNL     1     -44.194 -54.177  12.984  1.00  0.00     0.056 C 
ENDBRANCH   2  21
TORSDOF 4
ENDMDL
MODEL 8
REMARK VINA RESULT:      -6.0      3.422      4.810
REMARK  4 active torsions:
REMARK  status: ('A' for Active; 'I' for Inactive)
REMARK    1  A    between atoms: N_1  and  C_8 
REMARK    2  A    between atoms: N_2  and  C_7 
REMARK    3  A    between atoms: C_8  and  C_9 
REMARK       I    between atoms: C_9  and  N_12 
REMARK    4  A    between atoms: N_12  and  C_16 
ROOT
HETATM    1  N   UNL     1     -43.084 -53.440  13.506  1.00  0.00    -0.255 N 
HETATM    2  N   UNL     1     -40.890 -52.664  13.920  1.00  0.00    -0.279 N 
HETATM    3  C   UNL     1     -42.056 -52.572  13.158  1.00  0.00     0.334 C 
HETATM    4  C   UNL     1     -42.952 -54.488  14.407  1.00  0.00     0.292 C 
HETATM    5  C   UNL     1     -41.626 -54.610  15.042  1.00  0.00     0.200 C 
HETATM    6  C   UNL     1     -40.689 -53.691  14.819  1.00  0.00     0.146 C 
HETATM    7  O   UNL     1     -42.183 -51.754  12.248  1.00  0.00    -0.246 OA
HETATM    8  O   UNL     1     -43.867 -55.249  14.708  1.00  0.00    -0.264 OA
HETATM    9  F   UNL     1     -41.446 -55.619  15.917  1.00  0.00    -0.199 F 
ENDROOT
BRANCH   1  10
HETATM   10  C   UNL     1     -44.439 -53.061  13.121  1.00  0.00     0.240 C 
BRANCH  10  11
HETATM   11  C   UNL     1     -45.193 -51.996  13.917  1.00  0.00     0.240 C 
HETATM   12  N   UNL     1     -45.234 -52.175  15.289  1.00  0.00    -0.326 N 
HETATM   13  H   UNL     1     -44.701 -52.946  15.671  1.00  0.00     0.169 HD
HETATM   14  O   UNL     1     -45.848 -51.161  13.291  1.00  0.00    -0.271 OA
BRANCH  12  15
HETATM   15  C   UNL     1     -46.031 -51.442  16.208  1.00  0.00     0.034 A 
HETATM   16  C   UNL     1     -47.403 -51.636  16.386  1.00  0.00     0.029 A 
HETATM   17  C   UNL     1     -48.118 -50.920  17.351  1.00  0.00     0.002 A 
HETATM   18  C   UNL     1     -47.470 -49.982  18.145  1.00  0.00     0.000 A 
HETATM   19  C   UNL     1     -46.108 -49.755  17.965  1.00  0.00     0.002 A 
HETATM   20  C   UNL     1     -45.392 -50.481  17.003  1.00  0.00     0.029 A 
ENDBRANCH  12  15
ENDBRANCH  10  11
ENDBRANCH   1  10
BRANCH   2  21
HETATM   21  C   UNL     1     -39.925 -51.585  13.744  1.00  0.00     0.232 C 
HETATM   22  O   UNL     1     -38.801 -51.965  12.932  1.00  0.00    -0.366 OA
HETATM   23  C   UNL     1     -37.716 -51.080  13.276  1.00  0.00     0.170 C 
HETATM   24  C   UNL     1     -38.093 -50.360  14.559  1.00  0.00     0.031 C 
HETATM   25  C   UNL     1     -39.287 -51.136  15.052  1.00  0.00     0.056 C 
ENDBRANCH   2  21
TORSDOF 4
ENDMDL
MODEL 9
REMARK VINA RESULT:      -6.0      2.683      3.177
REMARK  4 active torsions:
REMARK  status: ('A' for Active; 'I' for Inactive)
REMARK    1  A    between atoms: N_1  and  C_8 
REMARK    2  A    between atoms: N_2  and  C_7 
REMARK    3  A    between atoms: C_8  and  C_9 
REMARK       I    between atoms: C_9  and  N_12 
REMARK    4  A    between atoms: N_12  and  C_16 
ROOT
HETATM    1  N   UNL     1     -39.953 -49.682  13.039  1.00  0.00    -0.255 N 
HETATM    2  N   UNL     1     -41.270 -48.109  11.865  1.00  0.00    -0.279 N 
HETATM    3  C   UNL     1     -40.491 -49.267  11.827  1.00  0.00     0.334 C 
HETATM    4  C   UNL     1     -39.981 -48.931  14.206  1.00  0.00     0.292 C 
HETATM    5  C   UNL     1     -40.685 -47.637  14.107  1.00  0.00     0.200 C 
HETATM    6  C   UNL     1     -41.326 -47.308  12.987  1.00  0.00     0.146 C 
HETATM    7  O   UNL     1     -40.311 -49.904  10.790  1.00  0.00    -0.246 OA
HETATM    8  O   UNL     1     -39.503 -49.307  15.272  1.00  0.00    -0.264 OA
HETATM    9  F   UNL     1     -40.730 -46.868  15.212  1.00  0.00    -0.199 F 
ENDROOT
BRANCH   1  10
HETATM   10  C   UNL     1     -39.590 -51.089  13.163  1.00  0.00     0.240 C 
BRANCH  10  11
HETATM   11  C   UNL     1     -40.634 -52.176  12.910  1.00  0.00     0.240 C 
HETATM   12  N   UNL     1     -41.768 -52.130  13.702  1.00  0.00    -0.326 N 
HETATM   13  H   UNL     1     -41.860 -51.343  14.332  1.00  0.00     0.169 HD
HETATM   14  O   UNL     1     -40.334 -53.103  12.156  1.00  0.00    -0.271 OA
BRANCH  12  15
HETATM   15  C   UNL     1     -42.771 -53.131  13.792  1.00  0.00     0.034 A 
HETATM   16  C   UNL     1     -42.748 -54.185  14.709  1.00  0.00     0.029 A 
HETATM   17  C   UNL     1     -43.799 -55.105  14.784  1.00  0.00     0.002 A 
HETATM   18  C   UNL     1     -44.886 -54.992  13.926  1.00  0.00     0.000 A 
HETATM   19  C   UNL     1     -44.916 -53.964  12.988  1.00  0.00     0.002 A 
HETATM   20  C   UNL     1     -43.865 -53.038  12.921  1.00  0.00     0.029 A 
ENDBRANCH  12  15
ENDBRANCH  10  11
ENDBRANCH   1  10
BRANCH   2  21
HETATM   21  C   UNL     1     -42.053 -47.826  10.668  1.00  0.00     0.232 C 
HETATM   22  O   UNL     1     -41.833 -46.502  10.153  1.00  0.00    -0.366 OA
HETATM   23  C   UNL     1     -42.996 -46.155   9.375  1.00  0.00     0.170 C 
HETATM   24  C   UNL     1     -44.087 -47.162   9.695  1.00  0.00     0.031 C 
HETATM   25  C   UNL     1     -43.556 -47.870  10.915  1.00  0.00     0.056 C 
ENDBRANCH   2  21
TORSDOF 4
ENDMDL
