MODEL 1
REMARK VINA RESULT:      -5.3      0.000      0.000
REMARK  3 active torsions:
REMARK  status: ('A' for Active; 'I' for Inactive)
REMARK    1  A    between atoms: C_2  and  N_9 
REMARK       I    between atoms: N_9  and  C_10 
REMARK    2  A    between atoms: C_10  and  C_12 
REMARK    3  A    between atoms: C_12  and  N_13 
ROOT
HETATM    1  N   UNL     1     -42.082 -49.994  11.563  1.00  0.00    -0.350 N 
HETATM    2  C   UNL     1     -41.949 -48.612  11.636  1.00  0.00     0.236 C 
HETATM    3  O   UNL     1     -41.945 -47.995  12.695  1.00  0.00    -0.272 OA
HETATM    4  H   UNL     1     -42.299 -50.386  10.655  1.00  0.00     0.163 HD
ENDROOT
BRANCH   1   5
HETATM    5  C   UNL     1     -42.294 -50.835  12.760  1.00  0.00     0.043 C 
HETATM    6  C   UNL     1     -43.627 -50.456  13.432  1.00  0.00     0.039 C 
HETATM    7  C   UNL     1     -42.367 -52.332  12.367  1.00  0.00     0.046 C 
HETATM    8  C   UNL     1     -40.973 -52.943  12.311  1.00  0.00     0.143 C 
HETATM    9  S   UNL     1     -39.890 -51.853  13.200  1.00  0.00     0.146 S 
HETATM   10  O   UNL     1     -39.348 -52.561  14.342  1.00  0.00    -0.228 OA
HETATM   11  O   UNL     1     -39.045 -51.179  12.236  1.00  0.00    -0.228 OA
HETATM   12  C   UNL     1     -41.137 -50.722  13.767  1.00  0.00     0.170 C 
ENDBRANCH   1   5
BRANCH   2  13
HETATM   13  C   UNL     1     -41.812 -47.897  10.307  1.00  0.00     0.231 C 
BRANCH  13  14
HETATM   14  N   UNL     1     -43.090 -47.716   9.650  1.00  0.00    -0.343 N 
HETATM   15  C   UNL     1     -44.291 -47.495  10.266  1.00  0.00     0.109 A 
HETATM   16  C   UNL     1     -45.208 -47.429   9.244  1.00  0.00     0.106 A 
HETATM   17  N   UNL     1     -44.596 -47.611   8.031  1.00  0.00    -0.361 N 
HETATM   18  C   UNL     1     -43.324 -47.802   8.306  1.00  0.00     0.182 A 
ATOM     19  HN  UNL     1     -45.033 -47.600   7.111  1.00  0.00     0.166 HD
ENDBRANCH  13  14
ENDBRANCH   2  13
TORSDOF 3
ENDMDL
MODEL 2
REMARK VINA RESULT:      -5.2      4.504      6.193
REMARK  3 active torsions:
REMARK  status: ('A' for Active; 'I' for Inactive)
REMARK    1  A    between atoms: C_2  and  N_9 
REMARK       I    between atoms: N_9  and  C_10 
REMARK    2  A    between atoms: C_10  and  C_12 
REMARK    3  A    between atoms: C_12  and  N_13 
ROOT
HETATM    1  N   UNL     1     -42.693 -44.909  11.690  1.00  0.00    -0.350 N 
HETATM    2  C   UNL     1     -42.180 -45.677  10.652  1.00  0.00     0.236 C 
HETATM    3  O   UNL     1     -41.443 -45.223   9.783  1.00  0.00    -0.272 OA
HETATM    4  H   UNL     1     -43.459 -45.307  12.220  1.00  0.00     0.163 HD
ENDROOT
BRANCH   1   5
HETATM    5  C   UNL     1     -42.443 -43.456  11.800  1.00  0.00     0.043 C 
HETATM    6  C   UNL     1     -43.376 -42.693  10.841  1.00  0.00     0.039 C 
HETATM    7  C   UNL     1     -42.731 -42.961  13.240  1.00  0.00     0.046 C 
HETATM    8  C   UNL     1     -41.505 -43.136  14.126  1.00  0.00     0.143 C 
HETATM    9  S   UNL     1     -40.110 -43.351  13.049  1.00  0.00     0.146 S 
HETATM   10  O   UNL     1     -39.186 -42.255  13.255  1.00  0.00    -0.228 OA
HETATM   11  O   UNL     1     -39.695 -44.737  13.127  1.00  0.00    -0.228 OA
HETATM   12  C   UNL     1     -40.975 -43.092  11.519  1.00  0.00     0.170 C 
ENDBRANCH   1   5
BRANCH   2  13
HETATM   13  C   UNL     1     -42.594 -47.135  10.649  1.00  0.00     0.231 C 
BRANCH  13  14
HETATM   14  N   UNL     1     -43.611 -47.412   9.656  1.00  0.00    -0.343 N 
HETATM   15  C   UNL     1     -44.959 -47.488   9.880  1.00  0.00     0.109 A 
HETATM   16  C   UNL     1     -45.504 -47.808   8.659  1.00  0.00     0.106 A 
HETATM   17  N   UNL     1     -44.525 -47.932   7.708  1.00  0.00    -0.361 N 
HETATM   18  C   UNL     1     -43.393 -47.708   8.340  1.00  0.00     0.182 A 
ATOM     19  HN  UNL     1     -44.647 -48.151   6.720  1.00  0.00     0.166 HD
ENDBRANCH  13  14
ENDBRANCH   2  13
TORSDOF 3
ENDMDL
MODEL 3
REMARK VINA RESULT:      -5.2      4.251      5.629
REMARK  3 active torsions:
REMARK  status: ('A' for Active; 'I' for Inactive)
REMARK    1  A    between atoms: C_2  and  N_9 
REMARK       I    between atoms: N_9  and  C_10 
REMARK    2  A    between atoms: C_10  and  C_12 
REMARK    3  A    between atoms: C_12  and  N_13 
ROOT
HETATM    1  N   UNL     1     -40.776 -52.703  14.888  1.00  0.00    -0.350 N 
HETATM    2  C   UNL     1     -39.611 -52.818  14.138  1.00  0.00     0.236 C 
HETATM    3  O   UNL     1     -39.356 -53.795  13.443  1.00  0.00    -0.272 OA
HETATM    4  H   UNL     1     -40.796 -51.979  15.595  1.00  0.00     0.163 HD
ENDROOT
BRANCH   1   5
HETATM    5  C   UNL     1     -41.783 -53.783  14.960  1.00  0.00     0.043 C 
HETATM    6  C   UNL     1     -41.265 -54.920  15.861  1.00  0.00     0.039 C 
HETATM    7  C   UNL     1     -43.105 -53.254  15.572  1.00  0.00     0.046 C 
HETATM    8  C   UNL     1     -43.989 -52.640  14.495  1.00  0.00     0.143 C 
HETATM    9  S   UNL     1     -43.391 -53.226  12.931  1.00  0.00     0.146 S 
HETATM   10  O   UNL     1     -44.431 -54.008  12.294  1.00  0.00    -0.228 OA
HETATM   11  O   UNL     1     -42.735 -52.121  12.261  1.00  0.00    -0.228 OA
HETATM   12  C   UNL     1     -42.154 -54.329  13.570  1.00  0.00     0.170 C 
ENDBRANCH   1   5
BRANCH   2  13
HETATM   13  C   UNL     1     -38.651 -51.649  14.235  1.00  0.00     0.231 C 
BRANCH  13  14
HETATM   14  N   UNL     1     -38.438 -51.010  12.953  1.00  0.00    -0.343 N 
HETATM   15  C   UNL     1     -37.228 -50.769  12.362  1.00  0.00     0.109 A 
HETATM   16  C   UNL     1     -37.529 -50.116  11.190  1.00  0.00     0.106 A 
HETATM   17  N   UNL     1     -38.883 -49.952  11.061  1.00  0.00    -0.361 N 
HETATM   18  C   UNL     1     -39.405 -50.481  12.145  1.00  0.00     0.182 A 
ATOM     19  HN  UNL     1     -39.381 -49.512  10.287  1.00  0.00     0.166 HD
ENDBRANCH  13  14
ENDBRANCH   2  13
TORSDOF 3
ENDMDL
MODEL 4
REMARK VINA RESULT:      -5.1      3.504      5.030
REMARK  3 active torsions:
REMARK  status: ('A' for Active; 'I' for Inactive)
REMARK    1  A    between atoms: C_2  and  N_9 
REMARK       I    between atoms: N_9  and  C_10 
REMARK    2  A    between atoms: C_10  and  C_12 
REMARK    3  A    between atoms: C_12  and  N_13 
ROOT
HETATM    1  N   UNL     1     -43.329 -51.583  12.789  1.00  0.00    -0.350 N 
HETATM    2  C   UNL     1     -42.019 -52.001  12.987  1.00  0.00     0.236 C 
HETATM    3  O   UNL     1     -41.600 -52.401  14.068  1.00  0.00    -0.272 OA
HETATM    4  H   UNL     1     -43.521 -51.066  11.940  1.00  0.00     0.163 HD
ENDROOT
BRANCH   1   5
HETATM    5  C   UNL     1     -44.318 -51.525  13.886  1.00  0.00     0.043 C 
HETATM    6  C   UNL     1     -43.948 -50.392  14.861  1.00  0.00     0.039 C 
HETATM    7  C   UNL     1     -45.733 -51.229  13.328  1.00  0.00     0.046 C 
HETATM    8  C   UNL     1     -46.427 -52.519  12.908  1.00  0.00     0.143 C 
HETATM    9  S   UNL     1     -45.558 -53.856  13.687  1.00  0.00     0.146 S 
HETATM   10  O   UNL     1     -46.462 -54.537  14.592  1.00  0.00    -0.228 OA
HETATM   11  O   UNL     1     -44.813 -54.560  12.664  1.00  0.00    -0.228 OA
HETATM   12  C   UNL     1     -44.436 -52.861  14.639  1.00  0.00     0.170 C 
ENDBRANCH   1   5
BRANCH   2  13
HETATM   13  C   UNL     1     -41.117 -51.930  11.772  1.00  0.00     0.231 C 
BRANCH  13  14
HETATM   14  N   UNL     1     -40.327 -50.716  11.749  1.00  0.00    -0.343 N 
HETATM   15  C   UNL     1     -39.136 -50.515  12.393  1.00  0.00     0.109 A 
HETATM   16  C   UNL     1     -38.795 -49.214  12.109  1.00  0.00     0.106 A 
HETATM   17  N   UNL     1     -39.746 -48.624  11.319  1.00  0.00    -0.361 N 
HETATM   18  C   UNL     1     -40.667 -49.544  11.134  1.00  0.00     0.182 A 
ATOM     19  HN  UNL     1     -39.741 -47.673  10.952  1.00  0.00     0.166 HD
ENDBRANCH  13  14
ENDBRANCH   2  13
TORSDOF 3
ENDMDL
MODEL 5
REMARK VINA RESULT:      -4.9      3.138      4.237
REMARK  3 active torsions:
REMARK  status: ('A' for Active; 'I' for Inactive)
REMARK    1  A    between atoms: C_2  and  N_9 
REMARK       I    between atoms: N_9  and  C_10 
REMARK    2  A    between atoms: C_10  and  C_12 
REMARK    3  A    between atoms: C_12  and  N_13 
ROOT
HETATM    1  N   UNL     1     -44.292 -51.161  13.015  1.00  0.00    -0.350 N 
HETATM    2  C   UNL     1     -43.611 -50.070  13.542  1.00  0.00     0.236 C 
HETATM    3  O   UNL     1     -43.575 -49.817  14.741  1.00  0.00    -0.272 OA
HETATM    4  H   UNL     1     -44.453 -51.161  12.016  1.00  0.00     0.163 HD
ENDROOT
BRANCH   1   5
HETATM    5  C   UNL     1     -45.090 -52.079  13.856  1.00  0.00     0.043 C 
HETATM    6  C   UNL     1     -46.279 -51.319  14.474  1.00  0.00     0.039 C 
HETATM    7  C   UNL     1     -45.658 -53.242  13.004  1.00  0.00     0.046 C 
HETATM    8  C   UNL     1     -44.648 -54.377  12.900  1.00  0.00     0.143 C 
HETATM    9  S   UNL     1     -43.458 -54.137  14.194  1.00  0.00     0.146 S 
HETATM   10  O   UNL     1     -43.518 -55.264  15.102  1.00  0.00    -0.228 OA
HETATM   11  O   UNL     1     -42.218 -53.701  13.585  1.00  0.00    -0.228 OA
HETATM   12  C   UNL     1     -44.247 -52.742  14.960  1.00  0.00     0.170 C 
ENDBRANCH   1   5
BRANCH   2  13
HETATM   13  C   UNL     1     -42.905 -49.189  12.531  1.00  0.00     0.231 C 
BRANCH  13  14
HETATM   14  N   UNL     1     -41.601 -49.708  12.170  1.00  0.00    -0.343 N 
HETATM   15  C   UNL     1     -40.819 -50.529  12.935  1.00  0.00     0.109 A 
HETATM   16  C   UNL     1     -39.674 -50.717  12.197  1.00  0.00     0.106 A 
HETATM   17  N   UNL     1     -39.742 -50.029  11.014  1.00  0.00    -0.361 N 
HETATM   18  C   UNL     1     -40.904 -49.415  11.032  1.00  0.00     0.182 A 
ATOM     19  HN  UNL     1     -39.039 -50.001  10.275  1.00  0.00     0.166 HD
ENDBRANCH  13  14
ENDBRANCH   2  13
TORSDOF 3
ENDMDL
MODEL 6
REMARK VINA RESULT:      -4.8      3.283      4.054
REMARK  3 active torsions:
REMARK  status: ('A' for Active; 'I' for Inactive)
REMARK    1  A    between atoms: C_2  and  N_9 
REMARK       I    between atoms: N_9  and  C_10 
REMARK    2  A    between atoms: C_10  and  C_12 
REMARK    3  A    between atoms: C_12  and  N_13 
ROOT
HETATM    1  N   UNL     1     -43.969 -50.808  13.200  1.00  0.00    -0.350 N 
HETATM    2  C   UNL     1     -42.616 -50.492  13.245  1.00  0.00     0.236 C 
HETATM    3  O   UNL     1     -41.904 -50.732  14.214  1.00  0.00    -0.272 OA
HETATM    4  H   UNL     1     -44.517 -50.376  12.466  1.00  0.00     0.163 HD
ENDROOT
BRANCH   1   5
HETATM    5  C   UNL     1     -44.682 -51.406  14.348  1.00  0.00     0.043 C 
HETATM    6  C   UNL     1     -44.501 -50.519  15.594  1.00  0.00     0.039 C 
HETATM    7  C   UNL     1     -46.200 -51.509  14.053  1.00  0.00     0.046 C 
HETATM    8  C   UNL     1     -46.518 -52.801  13.312  1.00  0.00     0.143 C 
HETATM    9  S   UNL     1     -45.132 -53.886  13.536  1.00  0.00     0.146 S 
HETATM   10  O   UNL     1     -45.570 -55.063  14.258  1.00  0.00    -0.228 OA
HETATM   11  O   UNL     1     -44.425 -53.972  12.275  1.00  0.00    -0.228 OA
HETATM   12  C   UNL     1     -44.215 -52.843  14.643  1.00  0.00     0.170 C 
ENDBRANCH   1   5
BRANCH   2  13
HETATM   13  C   UNL     1     -42.061 -49.815  12.008  1.00  0.00     0.231 C 
BRANCH  13  14
HETATM   14  N   UNL     1     -42.404 -48.409  11.953  1.00  0.00    -0.343 N 
HETATM   15  C   UNL     1     -41.956 -47.435  12.802  1.00  0.00     0.109 A 
HETATM   16  C   UNL     1     -42.579 -46.284  12.382  1.00  0.00     0.106 A 
HETATM   17  N   UNL     1     -43.393 -46.537  11.309  1.00  0.00    -0.361 N 
HETATM   18  C   UNL     1     -43.284 -47.828  11.084  1.00  0.00     0.182 A 
ATOM     19  HN  UNL     1     -43.962 -45.866  10.794  1.00  0.00     0.166 HD
ENDBRANCH  13  14
ENDBRANCH   2  13
TORSDOF 3
ENDMDL
MODEL 7
REMARK VINA RESULT:      -4.8      1.346      1.627
REMARK  3 active torsions:
REMARK  status: ('A' for Active; 'I' for Inactive)
REMARK    1  A    between atoms: C_2  and  N_9 
REMARK       I    between atoms: N_9  and  C_10 
REMARK    2  A    between atoms: C_10  and  C_12 
REMARK    3  A    between atoms: C_12  and  N_13 
ROOT
HETATM    1  N   UNL     1     -42.115 -50.715  11.911  1.00  0.00    -0.350 N 
HETATM    2  C   UNL     1     -41.610 -49.427  12.046  1.00  0.00     0.236 C 
HETATM    3  O   UNL     1     -41.474 -48.872  13.131  1.00  0.00    -0.272 OA
HETATM    4  H   UNL     1     -42.400 -50.999  10.981  1.00  0.00     0.163 HD
ENDROOT
BRANCH   1   5
HETATM    5  C   UNL     1     -42.593 -51.505  13.064  1.00  0.00     0.043 C 
HETATM    6  C   UNL     1     -43.951 -50.959  13.544  1.00  0.00     0.039 C 
HETATM    7  C   UNL     1     -42.791 -52.989  12.663  1.00  0.00     0.046 C 
HETATM    8  C   UNL     1     -41.487 -53.763  12.802  1.00  0.00     0.143 C 
HETATM    9  S   UNL     1     -40.415 -52.798  13.836  1.00  0.00     0.146 S 
HETATM   10  O   UNL     1     -40.127 -53.548  15.041  1.00  0.00    -0.228 OA
HETATM   11  O   UNL     1     -39.368 -52.245  13.001  1.00  0.00    -0.228 OA
HETATM   12  C   UNL     1     -41.582 -51.517  14.224  1.00  0.00     0.170 C 
ENDBRANCH   1   5
BRANCH   2  13
HETATM   13  C   UNL     1     -41.235 -48.731  10.754  1.00  0.00     0.231 C 
BRANCH  13  14
HETATM   14  N   UNL     1     -42.059 -47.567  10.501  1.00  0.00    -0.343 N 
HETATM   15  C   UNL     1     -41.633 -46.267  10.473  1.00  0.00     0.109 A 
HETATM   16  C   UNL     1     -42.768 -45.527  10.238  1.00  0.00     0.106 A 
HETATM   17  N   UNL     1     -43.864 -46.342  10.129  1.00  0.00    -0.361 N 
HETATM   18  C   UNL     1     -43.412 -47.563  10.312  1.00  0.00     0.182 A 
ATOM     19  HN  UNL     1     -44.827 -46.061   9.946  1.00  0.00     0.166 HD
ENDBRANCH  13  14
ENDBRANCH   2  13
TORSDOF 3
ENDMDL
MODEL 8
REMARK VINA RESULT:      -4.6      3.288      4.217
REMARK  3 active torsions:
REMARK  status: ('A' for Active; 'I' for Inactive)
REMARK    1  A    between atoms: C_2  and  N_9 
REMARK       I    between atoms: N_9  and  C_10 
REMARK    2  A    between atoms: C_10  and  C_12 
REMARK    3  A    between atoms: C_12  and  N_13 
ROOT
HETATM    1  N   UNL     1     -43.379 -51.537  12.674  1.00  0.00    -0.350 N 
HETATM    2  C   UNL     1     -42.616 -50.417  12.984  1.00  0.00     0.236 C 
HETATM    3  O   UNL     1     -41.545 -50.480  13.577  1.00  0.00    -0.272 OA
HETATM    4  H   UNL     1     -44.337 -51.375  12.391  1.00  0.00     0.163 HD
ENDROOT
BRANCH   1   5
HETATM    5  C   UNL     1     -42.992 -52.901  13.093  1.00  0.00     0.043 C 
HETATM    6  C   UNL     1     -41.574 -53.220  12.583  1.00  0.00     0.039 C 
HETATM    7  C   UNL     1     -42.978 -53.013  14.639  1.00  0.00     0.046 C 
HETATM    8  C   UNL     1     -44.366 -53.355  15.166  1.00  0.00     0.143 C 
HETATM    9  S   UNL     1     -45.305 -53.981  13.796  1.00  0.00     0.146 S 
HETATM   10  O   UNL     1     -45.673 -55.355  14.070  1.00  0.00    -0.228 OA
HETATM   11  O   UNL     1     -46.283 -52.977  13.429  1.00  0.00    -0.228 OA
HETATM   12  C   UNL     1     -43.988 -53.968  12.605  1.00  0.00     0.170 C 
ENDBRANCH   1   5
BRANCH   2  13
HETATM   13  C   UNL     1     -43.195 -49.088  12.544  1.00  0.00     0.231 C 
BRANCH  13  14
HETATM   14  N   UNL     1     -42.192 -48.223  11.956  1.00  0.00    -0.343 N 
HETATM   15  C   UNL     1     -41.622 -47.130  12.549  1.00  0.00     0.109 A 
HETATM   16  C   UNL     1     -40.770 -46.616  11.600  1.00  0.00     0.106 A 
HETATM   17  N   UNL     1     -40.814 -47.365  10.453  1.00  0.00    -0.361 N 
HETATM   18  C   UNL     1     -41.693 -48.314  10.688  1.00  0.00     0.182 A 
ATOM     19  HN  UNL     1     -40.278 -47.217   9.598  1.00  0.00     0.166 HD
ENDBRANCH  13  14
ENDBRANCH   2  13
TORSDOF 3
ENDMDL
MODEL 9
REMARK VINA RESULT:      -4.6      4.658      6.017
REMARK  3 active torsions:
REMARK  status: ('A' for Active; 'I' for Inactive)
REMARK    1  A    between atoms: C_2  and  N_9 
REMARK       I    between atoms: N_9  and  C_10 
REMARK    2  A    between atoms: C_10  and  C_12 
REMARK    3  A    between atoms: C_12  and  N_13 
ROOT
HETATM    1  N   UNL     1     -42.356 -52.599  14.036  1.00  0.00    -0.350 N 
HETATM    2  C   UNL     1     -41.365 -53.120  13.212  1.00  0.00     0.236 C 
HETATM    3  O   UNL     1     -41.026 -54.298  13.236  1.00  0.00    -0.272 OA
HETATM    4  H   UNL     1     -42.409 -51.591  14.106  1.00  0.00     0.163 HD
ENDROOT
BRANCH   1   5
HETATM    5  C   UNL     1     -43.046 -53.413  15.059  1.00  0.00     0.043 C 
HETATM    6  C   UNL     1     -42.150 -53.552  16.304  1.00  0.00     0.039 C 
HETATM    7  C   UNL     1     -44.367 -52.731  15.497  1.00  0.00     0.046 C 
HETATM    8  C   UNL     1     -45.508 -53.119  14.566  1.00  0.00     0.143 C 
HETATM    9  S   UNL     1     -44.990 -54.568  13.682  1.00  0.00     0.146 S 
HETATM   10  O   UNL     1     -45.877 -55.663  14.018  1.00  0.00    -0.228 OA
HETATM   11  O   UNL     1     -44.721 -54.184  12.312  1.00  0.00    -0.228 OA
HETATM   12  C   UNL     1     -43.447 -54.801  14.531  1.00  0.00     0.170 C 
ENDBRANCH   1   5
BRANCH   2  13
HETATM   13  C   UNL     1     -40.709 -52.131  12.270  1.00  0.00     0.231 C 
BRANCH  13  14
HETATM   14  N   UNL     1     -39.746 -51.288  12.947  1.00  0.00    -0.343 N 
HETATM   15  C   UNL     1     -39.653 -49.926  12.846  1.00  0.00     0.109 A 
HETATM   16  C   UNL     1     -38.576 -49.585  13.630  1.00  0.00     0.106 A 
HETATM   17  N   UNL     1     -38.016 -50.700  14.195  1.00  0.00    -0.361 N 
HETATM   18  C   UNL     1     -38.727 -51.713  13.752  1.00  0.00     0.182 A 
ATOM     19  HN  UNL     1     -37.216 -50.736  14.827  1.00  0.00     0.166 HD
ENDBRANCH  13  14
ENDBRANCH   2  13
TORSDOF 3
ENDMDL
